/batch
/config,noeldb,1     ! force off writing results to database
*get,_wallstrt,active,,time,wall
! ANSYS input file written by Workbench version 2026 R1
! File used for geometry attach: F:\CoME\Forth Semester\Practice FEM\Thin-Walled Structures\Assignment\Ansys_Workbench\plate_files\dp0\Geom-1\DM\Geom-1.agdb
/title,plate--Static Structural (B5)
! ****** Begin Custom Load Command Snippet ******
/COM, ACT Extensions:
/COM,     LSDYNA, 2026.1
/COM,     5f463412-bd3e-484b-87e7-cbc0a665e474, wbex
/COM,     ANSYSMotion, 2026.1
/COM,     20180725-3f81-49eb-9f31-41364844c769, wbex
! ****** End   Custom Load Command Snippet ******
*DIM,_wb_ProjectScratch_dir,string,248
_wb_ProjectScratch_dir(1) = 'F:\CoME\Forth Semester\Practice FEM\Thin-Walled Structures\Assignment\Ansys_Workbench\_ProjectScratch\ScrF09E\'
*DIM,_wb_SolverFiles_dir,string,248
_wb_SolverFiles_dir(1) = 'F:\CoME\Forth Semester\Practice FEM\Thin-Walled Structures\Assignment\Ansys_Workbench\plate_files\dp0\SYS\MECH\'
*DIM,_wb_userfiles_dir,string,248
_wb_userfiles_dir(1) = 'F:\CoME\Forth Semester\Practice FEM\Thin-Walled Structures\Assignment\Ansys_Workbench\plate_files\user_files\'
/com,--- Data in consistent NMM units. See Solving Units in the help system for more information.
/units,MPA
/nopr
/wb,file,start              !  signify a WB generated input file
/prep7
! Turn off shape checking because checks already performed inside WB mesher.
! See help system for more information.
SHPP,OFF,,NOWARN
/nolist
etcon,set             ! allow ANSYS to choose best KEYOP's for 180x elements, resets any applicable keyopt to MAPDL defaults
/com,*********** Send User Defined Coordinate System(s) ***********
csys,0
/com,*********** Nodes for the whole assembly ***********
nblock,3,,36608
(1i9,3e20.9e3)
        1     1.450704780E+02     4.998321697E+01     2.500000000E+00
        2     1.400000000E+02     5.000000000E+01     2.500000000E+00
        3     1.500337797E+02     5.000439059E+01     2.500000000E+00
        4     1.375000000E+02     5.000000000E+01     2.500000000E+00
        5     1.350000000E+02     5.000000000E+01     2.500000000E+00
        6     6.500000000E+01     5.000000000E+01     2.500000000E+00
        7     6.250000000E+01     5.000000000E+01     2.500000000E+00
        8     6.000000000E+01     5.000000000E+01     2.500000000E+00
        9     5.500000000E+01     5.000000000E+01     2.500000000E+00
       10     5.000000000E+01     5.000000000E+01     2.500000000E+00
       11     6.249775764E+01     5.249962730E+01     2.500000000E+00
       12     5.999775766E+01     5.250000063E+01     2.500000000E+00
       13     5.500000000E+01     5.250000000E+01     2.500000000E+00
       14     5.000000000E+01     5.250000000E+01     2.500000000E+00
       15     1.450443264E+02     4.748780219E+01     2.500000000E+00
       16     1.400000000E+02     4.750000000E+01     2.500000000E+00
       17     1.375000000E+02     4.750000000E+01     2.500000000E+00
       18     1.350000000E+02     4.750000000E+01     2.500000000E+00
       19     1.350000000E+02     5.250000000E+01     2.500000000E+00
       20     1.375000000E+02     5.250000000E+01     2.500000000E+00
! ... 33261 like lines cut
/wb,elem,start            !  set before creation of elements
/com,*********** Elements for Body 1 'Solid' ***********
et,1,186
keyo,1,2,1          ! set full integration on SOLID186
MAT,1 $ TYPE,1 $ REAL,1 $ SECNUM,1 $ ESYS,0    ! ELEMNODES = 20
eblock,21,COMPACT,,5824
(21i9)
        1        1     2584     2583       22     5512     2929     2930     5491     9208    19876     9313     9206    20916    20914    20918    26032     9209    19880    19877     9314
        2        1       22     2583     2584     5513     5534     8095     8096     9206     9313    19876     9208    26054    26119    31560    26056     9210     9315    19878    19881
        3        1       15     2585     2584     5512     5498     2928     2929     9205     9282    19879     9208    26043    20913    20911    20916     9209     9283    19883    19880
        4        1     2584     2585       15     5513     8096     8097     5527     9208    19879     9282     9205    26056    31561    26102    26053     9210    19881    19884     9284
        5        2       21     2583     2584     5511     5492     2930     2929     9213     9308    19876     9214    26034    20919    20914    20915     9215     9309    19877    19880
        6        2     2584     2583       21     5514     8096     8095     5533     9214    19876     9308     9213    26060    31560    26116    26059     9216    19881    19878     9310
        7        2     2584     2585       16     5511     2929     2928     5497     9214    19879     9287     9212    20915    20911    20912    26042     9215    19880    19883     9288
        8        2       16     2585     2584     5514     5528     8097     8096     9212     9287    19879     9214    26058    26105    31561    26060     9216     9289    19884    19881
        9        1       22     2312     2313     5512     5491     3201     3200     9206     9312    19073     9207    26032    21742    21737    21739     9209     9314    19074    19077
       10        1     2313     2312       22     5513     7825     7824     5534     9207    19073     9312     9206    26055    31299    26118    26054     9210    19078    19075     9315
       11        1     2313     2314       15     5512     3200     3199     5498     9207    19076     9281     9205    21739    21734    21736    26043     9209    19077    19080     9283
       12        1       15     2314     2313     5513     5527     7826     7825     9205     9281    19076     9207    26053    26101    31300    26055     9210     9284    19081    19078
       13        2        4       20       21     5511     5509     5493     5492     9211     9225     9303     9213    26052    26036    26033    26034     9215     9226     9305     9309
       14        2       21       20        4     5514     5533     5532     5516     9213     9303     9225     9211    26059    26113    26067    26057     9216     9310     9306     9227
       15        2       16       17        4     5511     5497     5496     5509     9212     9285     9224     9211    26042    26040    26041    26052     9215     9288     9292     9226
       16        2        4       17       16     5514     5516     5529     5528     9211     9224     9285     9212    26057    26066    26103    26058     9216     9227     9293     9289
       17        3     2313     2312       23     5510     3200     3201     5490     9220    19073     9318     9217    21738    21737    21741    26031     9221    19077    19074     9319
       18        3       23     2312     2313     5515     5535     7824     7825     9217     9318    19073     9220    26061    26122    31299    26064     9222     9320    19075    19078
       19        3       26     2314     2313     5510     5487     3199     3200     9219     9332    19076     9220    26027    21735    21734    21738     9221     9333    19080    19077
       20        3     2313     2314       26     5515     7825     7826     5538     9220    19076     9332     9219    26064    31300    26130    26063     9222    19078    19081     9334
! ... 5805 like lines cut
secnum,1    ! reset the section ID to default
! Material Id = {BDF5AC9A-EE1F-43D7-8ECF-A1C5FA984ECE}
/wb,elem,end               !  done creating elements
toffst,273.15,      ! Temperature offset from absolute zero
/com,*********** Set Reference Temperature ***********
tref,22.
/wb,mat,start              !  starting to send materials
/com,*********** Send Materials ***********
Temperature = 'TEMP' ! Temperature
MP,DENS,1,7.85e-09,	! tonne mm^-3
MP,ALPX,1,1.2e-05,	! C^-1
MP,C,1,434000000,	! mm^2 s^-2 C^-1
MP,KXX,1,60.5,	! tonne mm s^-3 C^-1
MP,RSVX,1,0.00017,	! ohm mm
MP,EX,1,200000,	! tonne s^-2 mm^-1
MP,NUXY,1,0.3,
MP,MURX,1,10000,
MP,UVID,1,ebefdaf3-1e68-4880-83e7-daa33e7906b5
MP,UMID,1,59002a79-71c2-428e-906b-55d7dbee100e

/wb,mat,end                !  done sending materials
!************************* Model Summary ********************
! Solid,	Structural Steel,	matid,	1
!************************* End Model Summary ********************
! get the diagonal of the bounding box. Needed later for other things
*get,_xmin,node,,mnloc,x
*get,_ymin,node,,mnloc,y
*get,_zmin,node,,mnloc,z
*get,_xmax,node,,mxloc,x
*get,_ymax,node,,mxloc,y
*get,_zmax,node,,mxloc,z
_ASMDIAG=(_xmax-_xmin)*(_xmax-_xmin)+(_ymax-_ymin)*(_ymax-_ymin)+(_zmax-_zmin)*(_zmax-_zmin)
_ASMDIAG=SQRT(_ASMDIAG)
/wb,contact,start          !  starting to send contact
/wb,contact,end            !  done creating contacts
/golist
/wb,load,start             !  starting to send loads
/com,*********** Fixed Supports ***********
CMBLOCK,_FIXEDSU,NODE,        5
(8i10)
      8540     -8662     32264    -32464     32467
cmsel,s,_FIXEDSU
d,all,all
nsel,all
/com,*********** Define Pressure Using Surface Effect Elements "Pressure" ***********
et,2,154
MAT,2 $ TYPE,2 $ REAL,2 $ SECNUM,2 $ ESYS,0    ! ELEMNODES = 8
eblock,21,COMPACT,,80
(21i9)
    12273     8902     8823     8900     8901    32712    32711    32826    32827
    12274     8420     8421     8823     8902    32024    32027    32712    32025
    12275     8823     8824     8899     8900    32710    32714    32825    32711
    12276     8421     8422     8824     8823    32026    32029    32710    32027
    12277     8824     8825     8898     8899    32713    32716    32824    32714
    12278     8422     8423     8825     8824    32028    32031    32713    32029
    12279     8825     8826     8897     8898    32715    32718    32823    32716
    12280     8423     8424     8826     8825    32030    32033    32715    32031
    12281     8826     8827     8896     8897    32717    32720    32822    32718
    12282     8424     8425     8827     8826    32032    32035    32717    32033
    12283     8827     8828     8895     8896    32719    32722    32821    32720
    12284     8425     8426     8828     8827    32034    32037    32719    32035
    12285     8828     8829     8894     8895    32721    32724    32820    32722
    12286     8426     8427     8829     8828    32036    32039    32721    32037
    12287     8829     8830     8893     8894    32723    32726    32819    32724
    12288     8427     8428     8830     8829    32038    32041    32723    32039
    12289     8830     8831     8892     8893    32725    32728    32818    32726
    12290     8428     8429     8831     8830    32040    32043    32725    32041
    12291     8831     8832     8891     8892    32727    32730    32817    32728
    12292     8429     8430     8832     8831    32042    32045    32727    32043
! ... 61 like lines cut
secnum,1    ! reset the section ID to default
esel,s,type,,2
keyop,2,7,0         ! Use deformed area for application of load
esel,all
esel,all
/gst,on,on
fini
*get,_numnode,node,0,count
*get,_numelem,elem,0,count
*get, _MAXELEMNUM, elem, 0, NUM, MAX
*get, _MAXNODENUM, node, 0, NUM, MAX
*get, _MAXELEMTYPE, etyp, 0, NUM, MAX
*get, _MAXREALCONST, rcon, 0, NUM, MAX
/go
/wb,load,end               !  done creating loads
/com,--- Number of total nodes = %_numnode%
/com,--- Number of contact elements = 80
/com,--- Number of spring elements = 0
/com,--- Number of bearing elements = 0
/com,--- Number of solid elements = 5824
/com,--- Number of condensed parts = 0
/com,--- Number of total elements = %_numelem%
*get,_wallbsol,active,,time,wall
/com,****************************************************************************
/com,*************************    SOLUTION       ********************************
/com,****************************************************************************
/solu
antype,0                   ! static analysis
_thickRatio=  0     ! Ratio of thick parts in the model
eqsl,sparse,,,,,1
cntr,print,1               ! print out contact info and also make no initial contact an error
cncheck,dmp		!	Enable program controlled contact splitting for distributed memory parallel run
dmpoption,emat,no             ! Don't combine emat file for DANSYS
dmpoption,esav,no             ! Don't combine esav file for DANSYS
nldiag,cont,iter           ! print out contact info each equilibrium iteration
rescontrol,,none                 ! Do not keep any restart files
/com,****************************************************
/com,******************* SOLVE FOR LS 1 OF 1 ****************
esel,s,type,,2
nsle
sf,all,pres,-100.
nsel,all
esel,all
esel,all
/nopr
/gopr
nsub,1,1,1
time,1.
outres,erase
outres,all,none
outres,nsol,all,
outres,rsol,all
outres,eangl,all
outres,etmp,all
outres,veng,all
outres,strs,all,
outres,epel,all,
outres,eppl,all,
outres,cont,all,
! *********** WB SOLVE COMMAND ***********
! check interactive state
*get,ANSINTER_,active,,int
*if,ANSINTER_,ne,0,then
/eof
*endif
solve
/com *************** Write FE CONNECTORS ********* 
CEWRITE,file,ce,,INTE
/com,****************************************************
/com,*************** FINISHED SOLVE FOR LS 1 *************
fini
*get,_wallasol,active,,time,wall
/nopr
*get,_numnode,node,0,count
*get,_numelem,elem,0,count
*get, _MAXELEMNUM, elem, 0, NUM, MAX
*get, _MAXNODENUM, node, 0, NUM, MAX,,,INTERNAL
*get, _MAXELEMTYPE, etyp, 0, NUM, MAX
*get, _MAXREALCONST, rcon, 0, NUM, MAX
*get,_NSOLTHREADS,active,0,ntfs
*get,_NSOLPROCESSES,active,0,npfs
/gopr
/post1
xmlo,ENCODING,ISO-8859-1
xmlo,parm
/xml,parm,xml
fini
/gopr
*get,_walldone,active,,time,wall
_preptime=(_wallbsol-_wallstrt)*3600
_solvtime=(_wallasol-_wallbsol)*3600
_posttime=(_walldone-_wallasol)*3600
_totaltim=(_walldone-_wallstrt)*3600
*get,_dlbratio,active,0,solu,dlbr
*get,_combtime,active,0,solu,comb
*get,_ssmode,active,0,solu,ssmm
*get,_ndofs,active,0,solu,ndof
*get,_sol_end_time,active,0,set,time
*if,_sol_end_time,eq,1.000000,then
/fclean				!clean distributed files
*endif
/com,--- Total number of nodes = %_numnode%
/com,--- Total number of elements = %_numelem%
/com,--- Element load balance ratio = %_dlbratio%
/com,--- Time to combine distributed files = %_combtime%
/com,--- Sparse memory mode = %_ssmode%
/com,--- Number of DOF = %_ndofs%
/wb,file,end               ! done with WB generated input
