/batch
/config,noeldb,1     ! force off writing results to database
*get,_wallstrt,active,,time,wall
! ANSYS input file written by Workbench version 2026 R1
! File used for geometry attach: F:\CoME\Forth Semester\Practice FEM\Thin-Walled Structures\Assignment\Ansys_Workbench\plate_files\dp0\Geom-2\DM\Geom-2.agdb
/title,plate--Static Structural (D5)
! ****** Begin Custom Load Command Snippet ******
/COM, ACT Extensions:
/COM,     LSDYNA, 2026.1
/COM,     5f463412-bd3e-484b-87e7-cbc0a665e474, wbex
/COM,     ANSYSMotion, 2026.1
/COM,     20180725-3f81-49eb-9f31-41364844c769, wbex
! ****** End   Custom Load Command Snippet ******
*DIM,_wb_ProjectScratch_dir,string,248
_wb_ProjectScratch_dir(1) = 'F:\CoME\Forth Semester\Practice FEM\Thin-Walled Structures\Assignment\Ansys_Workbench\_ProjectScratch\ScrED50\'
*DIM,_wb_SolverFiles_dir,string,248
_wb_SolverFiles_dir(1) = 'F:\CoME\Forth Semester\Practice FEM\Thin-Walled Structures\Assignment\Ansys_Workbench\plate_files\dp0\SYS-1\MECH\'
*DIM,_wb_userfiles_dir,string,248
_wb_userfiles_dir(1) = 'F:\CoME\Forth Semester\Practice FEM\Thin-Walled Structures\Assignment\Ansys_Workbench\plate_files\user_files\'
/com,--- Data in consistent NMM units. See Solving Units in the help system for more information.
/units,MPA
/nopr
/wb,file,start              !  signify a WB generated input file
/prep7
! Turn off shape checking because checks already performed inside WB mesher.
! See help system for more information.
SHPP,OFF,,NOWARN
/nolist
etcon,set             ! allow ANSYS to choose best KEYOP's for 180x elements, resets any applicable keyopt to MAPDL defaults
/com,*********** Send User Defined Coordinate System(s) ***********
csys,0
/com,*********** Nodes for the whole assembly ***********
nblock,3,,9952
(1i9,3e20.9e3)
        1    -1.000000000E+02    -5.000000000E+01     0.000000000E+00
        2    -1.000000000E+02     5.000000000E+01     0.000000000E+00
        3    -1.000000000E+02    -4.750000000E+01     0.000000000E+00
        4    -1.000000000E+02    -4.500000000E+01     0.000000000E+00
        5    -1.000000000E+02    -4.250000000E+01     0.000000000E+00
        6    -1.000000000E+02    -4.000000000E+01     0.000000000E+00
        7    -1.000000000E+02    -3.750000000E+01     0.000000000E+00
        8    -1.000000000E+02    -3.500000000E+01     0.000000000E+00
        9    -1.000000000E+02    -3.250000000E+01     0.000000000E+00
       10    -1.000000000E+02    -3.000000000E+01     0.000000000E+00
       11    -1.000000000E+02    -2.750000000E+01     0.000000000E+00
       12    -1.000000000E+02    -2.500000000E+01     0.000000000E+00
       13    -1.000000000E+02    -2.250000000E+01     0.000000000E+00
       14    -1.000000000E+02    -2.000000000E+01     0.000000000E+00
       15    -1.000000000E+02    -1.750000000E+01     0.000000000E+00
       16    -1.000000000E+02    -1.500000000E+01     0.000000000E+00
       17    -1.000000000E+02    -1.250000000E+01     0.000000000E+00
       18    -1.000000000E+02    -1.000000000E+01     0.000000000E+00
       19    -1.000000000E+02    -7.500000000E+00     0.000000000E+00
       20    -1.000000000E+02    -5.000000000E+00     0.000000000E+00
! ... 9029 like lines cut
/wb,elem,start            !  set before creation of elements
/com,*********** Elements for Body 1 'Surface Body' ***********
et,1,183
keyo,1,3,3
MAT,1 $ TYPE,1 $ REAL,1 $ SECNUM,1 $ ESYS,0    ! ELEMNODES = 8
eblock,21,COMPACT,,2912
(21i9)
        1     2890      328      316      313     3745     3705     3693     3696
        2      313      317      327     2890     3694     3708     3742     3696
        3      316      338      320      313     3707     3718     3695     3693
        4      320     2784      317      313     3720     3710     3694     3695
        5     2938      324     2993      314     3731     3733     3699     3698
        6      314      319      323     2938     3697     3715     3729     3698
        7     2993      337     2996      314     3772     3773     3700     3699
        8     2996      339      319      314     3778     3717     3697     3700
        9      328     2834      332      316     3744     3759     3706     3705
       10     2834      315      360      332     3704     3703     3757     3759
       11     2834     2976      353      315     8976     3813     3702     3704
       12      353      352      330      315     3810     3750     3701     3702
       13      330     2864      360      315     3752     3833     3703     3701
       14      332      370      338      316     3758     3775     3707     3706
       15      317      334      325      327     3709     3736     3735     3708
       16     2784      374      334      317     3868     3763     3709     3710
       17      324     2947     2901     2993     3732     9016     9017     3733
       18     2947      318      364     2901     3714     3712     3844     9016
       19     2947      345      347      318     3795     3794     3711     3714
       20      347     2900     2946      318     3800     9014     3713     3711
! ... 2893 like lines cut
secnum,1    ! reset the section ID to default
! Material Id = {6C6FDBE2-C9D6-43A2-9419-5F409CBB94B7}
/wb,elem,end               !  done creating elements
toffst,273.15,      ! Temperature offset from absolute zero
/com,*********** Set Reference Temperature ***********
tref,22.
/wb,mat,start              !  starting to send materials
/com,*********** Send Materials ***********
Temperature = 'TEMP' ! Temperature
MP,DENS,1,7.85e-09,	! tonne mm^-3
MP,ALPX,1,1.2e-05,	! C^-1
MP,C,1,434000000,	! mm^2 s^-2 C^-1
MP,KXX,1,60.5,	! tonne mm s^-3 C^-1
MP,RSVX,1,0.00017,	! ohm mm
MP,EX,1,200000,	! tonne s^-2 mm^-1
MP,NUXY,1,0.3,
MP,MURX,1,10000,
MP,UVID,1,3f9ab3a9-9e3e-481b-828e-a3e8bedabc69
MP,UMID,1,59002a79-71c2-428e-906b-55d7dbee100e

/wb,mat,end                !  done sending materials
/com,*********** Send Sheet Properties ***********
r,1,5.

!************************* Model Summary ********************
! Surface Body,	Structural Steel,	matid,	1
!************************* End Model Summary ********************
! get the diagonal of the bounding box. Needed later for other things
*get,_xmin,node,,mnloc,x
*get,_ymin,node,,mnloc,y
*get,_zmin,node,,mnloc,z
*get,_xmax,node,,mxloc,x
*get,_ymax,node,,mxloc,y
*get,_zmax,node,,mxloc,z
_ASMDIAG=(_xmax-_xmin)*(_xmax-_xmin)+(_ymax-_ymin)*(_ymax-_ymin)+(_zmax-_zmin)*(_zmax-_zmin)
_ASMDIAG=SQRT(_ASMDIAG)
/wb,contact,start          !  starting to send contact
/wb,contact,end            !  done creating contacts
/golist
/wb,load,start             !  starting to send loads
/com,*********** Fixed Supports ***********
CMBLOCK,_FIXEDSU,NODE,       42
(8i10)
         1       -41      3069      3071      3073      3075      3077      3079
      3081      3083      3085      3087      3089      3091      3093      3095
      3097      3099      3101      3103      3105      3107      3109      3111
      3113      3115      3117      3119      3121      3123      3125      3127
      3129      3131      3133      3135      3137      3139      3141      3143
      3145      3147
cmsel,s,_FIXEDSU
d,all,all
nsel,all
/com,*********** Define Pressure Vector Using Surface Effect Elements ***********
local,12,0,0.,0.,0.,0.,0.,0.
csys,0
et,2,153
keyop,2,3,10        ! get plane stress option and thickness from underlying element
MAT,2 $ TYPE,2 $ REAL,2 $ SECNUM,2 $ ESYS,12    ! ELEMNODES = 3
eblock,21,COMPACT,,40
(21i9)
     2913      122      123     3309
     2914      123      124     3311
     2915      124      125     3313
     2916      125      126     3315
     2917      126      127     3317
     2918      127      128     3319
     2919      128      129     3321
     2920      129      130     3323
     2921      130      131     3325
     2922      131      132     3327
     2923      132      133     3329
     2924      133      134     3331
     2925      134      135     3333
     2926      135      136     3335
     2927      136      137     3337
     2928      137      138     3339
     2929      138      139     3341
     2930      139      140     3343
     2931      140      141     3345
     2932      141      142     3347
! ... 21 like lines cut
secnum,1    ! reset the section ID to default
esel,s,type,,2
keyop,2,2,1         ! Apply load in local coordinate system
keyop,2,7,0         ! Use deformed area for application of load
keyop,2,11,2        ! Use real and not project area
esel,all
/gst,on,on
fini
*get,_numnode,node,0,count
*get,_numelem,elem,0,count
*get, _MAXELEMNUM, elem, 0, NUM, MAX
*get, _MAXNODENUM, node, 0, NUM, MAX
*get, _MAXELEMTYPE, etyp, 0, NUM, MAX
*get, _MAXREALCONST, rcon, 0, NUM, MAX
/go
/wb,load,end               !  done creating loads
/com,--- Number of total nodes = %_numnode%
/com,--- Number of contact elements = 40
/com,--- Number of spring elements = 0
/com,--- Number of bearing elements = 0
/com,--- Number of solid elements = 2912
/com,--- Number of condensed parts = 0
/com,--- Number of total elements = %_numelem%
*get,_wallbsol,active,,time,wall
/com,****************************************************************************
/com,*************************    SOLUTION       ********************************
/com,****************************************************************************
/solu
antype,0                   ! static analysis
_thickRatio=  0     ! Ratio of thick parts in the model
eqsl,sparse,,,,,1
cntr,print,1               ! print out contact info and also make no initial contact an error
cncheck,dmp		!	Enable program controlled contact splitting for distributed memory parallel run
dmpoption,emat,no             ! Don't combine emat file for DANSYS
dmpoption,esav,no             ! Don't combine esav file for DANSYS
nldiag,cont,iter           ! print out contact info each equilibrium iteration
rescontrol,,none                 ! Do not keep any restart files
/com,****************************************************
/com,******************* SOLVE FOR LS 1 OF 1 ****************
esel,s,type,,2
nsle
sfe,all,1,pres,1,100.
sfe,all,2,pres,1,0.
nsel,all
esel,all
/nopr
/gopr
nsub,1,1,1
time,1.
outres,erase
outres,all,none
outres,nsol,all,
outres,rsol,all
outres,eangl,all
outres,etmp,all
outres,veng,all
outres,strs,all,
outres,epel,all,
outres,eppl,all,
outres,cont,all,
! *********** WB SOLVE COMMAND ***********
! check interactive state
*get,ANSINTER_,active,,int
*if,ANSINTER_,ne,0,then
/eof
*endif
solve
/com *************** Write FE CONNECTORS ********* 
CEWRITE,file,ce,,INTE
/com,****************************************************
/com,*************** FINISHED SOLVE FOR LS 1 *************
fini
*get,_wallasol,active,,time,wall
/nopr
*get,_numnode,node,0,count
*get,_numelem,elem,0,count
*get, _MAXELEMNUM, elem, 0, NUM, MAX
*get, _MAXNODENUM, node, 0, NUM, MAX,,,INTERNAL
*get, _MAXELEMTYPE, etyp, 0, NUM, MAX
*get, _MAXREALCONST, rcon, 0, NUM, MAX
*get,_NSOLTHREADS,active,0,ntfs
*get,_NSOLPROCESSES,active,0,npfs
/gopr
/post1
xmlo,ENCODING,ISO-8859-1
xmlo,parm
/xml,parm,xml
fini
/gopr
*get,_walldone,active,,time,wall
_preptime=(_wallbsol-_wallstrt)*3600
_solvtime=(_wallasol-_wallbsol)*3600
_posttime=(_walldone-_wallasol)*3600
_totaltim=(_walldone-_wallstrt)*3600
*get,_dlbratio,active,0,solu,dlbr
*get,_combtime,active,0,solu,comb
*get,_ssmode,active,0,solu,ssmm
*get,_ndofs,active,0,solu,ndof
*get,_sol_end_time,active,0,set,time
*if,_sol_end_time,eq,1.000000,then
/fclean				!clean distributed files
*endif
/com,--- Total number of nodes = %_numnode%
/com,--- Total number of elements = %_numelem%
/com,--- Element load balance ratio = %_dlbratio%
/com,--- Time to combine distributed files = %_combtime%
/com,--- Sparse memory mode = %_ssmode%
/com,--- Number of DOF = %_ndofs%
/wb,file,end               ! done with WB generated input
