/batch
/config,noeldb,1     ! force off writing results to database
*get,_wallstrt,active,,time,wall
! ANSYS input file written by Workbench version 2026 R1
! File used for geometry attach: F:\CoME\Forth Semester\Practice FEM\Git_upload\05_Contact_Analysis\2_knuckle_joint_analysis\ansys\project_files\knuckle_joint_files\dp0\Geom\DM\Geom.agdb
/title,knuckle_joint--Static Structural (B5)
! ****** Begin Custom Load Command Snippet ******
/COM, ACT Extensions:
/COM,     LSDYNA, 2026.1
/COM,     5f463412-bd3e-484b-87e7-cbc0a665e474, wbex
/COM,     ANSYSMotion, 2026.1
/COM,     20180725-3f81-49eb-9f31-41364844c769, wbex
! ****** End   Custom Load Command Snippet ******
*DIM,_wb_ProjectScratch_dir,string,248
_wb_ProjectScratch_dir(1) = 'F:\CoME\Forth Semester\Practice FEM\Git_upload\05_Contact_Analysis\2_knuckle_joint_analysis\ansys\project_files\_ProjectScratch\Scr26F3\'
*DIM,_wb_SolverFiles_dir,string,248
_wb_SolverFiles_dir(1) = 'F:\CoME\Forth Semester\Practice FEM\Git_upload\05_Contact_Analysis\2_knuckle_joint_analysis\ansys\project_files\knuckle_joint_files\dp0\SYS\MECH\'
*DIM,_wb_userfiles_dir,string,248
_wb_userfiles_dir(1) = 'F:\CoME\Forth Semester\Practice FEM\Git_upload\05_Contact_Analysis\2_knuckle_joint_analysis\ansys\project_files\knuckle_joint_files\user_files\'
/com,--- Data in consistent NMM units. See Solving Units in the help system for more information.
/units,MPA
/nopr
/wb,file,start              !  signify a WB generated input file
/prep7
! Turn off shape checking because checks already performed inside WB mesher.
! See help system for more information.
SHPP,OFF,,NOWARN
/nolist
etcon,set             ! allow ANSYS to choose best KEYOP's for 180x elements, resets any applicable keyopt to MAPDL defaults
/com,*********** Send User Defined Coordinate System(s) ***********
csys,0
/com,*********** Nodes for the whole assembly ***********
nblock,3,,60575
(1i9,3e20.9e3)
        1    -5.029791625E+01    -3.936781433E+01     9.950887011E+00
        2    -5.025071453E+01    -3.936781308E+01     1.255915559E+01
        3    -5.020351282E+01    -3.936781183E+01     1.516742418E+01
        4    -5.015631111E+01    -3.936781058E+01     1.777569276E+01
        5    -5.010910939E+01    -3.936780933E+01     2.038396134E+01
        6    -5.006190768E+01    -3.936780808E+01     2.299222993E+01
        7    -5.001470596E+01    -3.936780683E+01     2.560049851E+01
        8    -4.996750425E+01    -3.936780558E+01     2.820876710E+01
        9    -4.992030253E+01    -3.936780433E+01     3.081703568E+01
       10    -4.987310082E+01    -3.936780308E+01     3.342530426E+01
       11    -4.982589910E+01    -3.936780182E+01     3.603357285E+01
       12    -4.977869739E+01    -3.936780057E+01     3.864184143E+01
       13    -4.973149568E+01    -3.936779932E+01     4.125011001E+01
       14    -4.968429396E+01    -3.936779807E+01     4.385837860E+01
       15    -4.963709225E+01    -3.936779682E+01     4.646664718E+01
       16    -4.958989053E+01    -3.936779557E+01     4.907491576E+01
       17    -4.954268882E+01    -3.936779432E+01     5.168318435E+01
       18    -4.949548710E+01    -3.936779307E+01     5.429145293E+01
       19    -4.944828539E+01    -3.936779182E+01     5.689972151E+01
       20    -4.940108367E+01    -3.936779057E+01     5.950799010E+01
! ... 55050 like lines cut
/wb,elem,start            !  set before creation of elements
/com,*********** Elements for Body 1 'TAPPER PIN' ***********
et,1,186
keyo,1,2,1          ! set full integration on SOLID186
MAT,1 $ TYPE,1 $ REAL,1 $ SECNUM,1 $ ESYS,0    ! ELEMNODES = 20
eblock,21,COMPACT,,69
(21i9)
        1        1       31       32       79       23       75       77       78      171      276      282      172      258      387      390      259      170      278      281      391
        2        1       79       32       31        2       80       34       33      172      282      276      171      176      287      283      175      169      393      280      277
        3        2       80       34       33        3       81       36       35      176      287      283      175      180      292      288      179      174      395      286      284
        4        3       81       36       35        4       82       38       37      180      292      288      179      184      297      293      183      178      397      291      289
        5        4       82       38       37        5       83       40       39      184      297      293      183      188      302      298      187      182      399      296      294
        6        5       83       40       39        6       84       42       41      188      302      298      187      192      307      303      191      186      401      301      299
        7        6       84       42       41        7       85       44       43      192      307      303      191      196      312      308      195      190      403      306      304
        8        7       85       44       43        8       86       46       45      196      312      308      195      200      317      313      199      194      405      311      309
        9        8       86       46       45        9       87       48       47      200      317      313      199      204      322      318      203      198      407      316      314
       10        9       87       48       47       10       88       50       49      204      322      318      203      208      327      323      207      202      409      321      319
       11       10       88       50       49       11       89       52       51      208      327      323      207      212      332      328      211      206      411      326      324
       12       11       89       52       51       12       90       54       53      212      332      328      211      216      337      333      215      210      413      331      329
       13       12       90       54       53       13       91       56       55      216      337      333      215      220      342      338      219      214      415      336      334
       14       13       91       56       55       14       92       58       57      220      342      338      219      224      347      343      223      218      417      341      339
       15       14       92       58       57       15       93       60       59      224      347      343      223      228      352      348      227      222      419      346      344
       16       15       93       60       59       16       94       62       61      228      352      348      227      232      357      353      231      226      421      351      349
       17       16       94       62       61       17       95       64       63      232      357      353      231      236      362      358      235      230      423      356      354
       18       17       95       64       63       18       96       66       65      236      362      358      235      240      367      363      239      234      425      361      359
       19       18       96       66       65       19       97       68       67      240      367      363      239      244      372      368      243      238      427      366      364
       20       19       97       68       67       20       98       70       69      244      372      368      243      248      377      373      247      242      429      371      369
! ... 50 like lines cut
secnum,1    ! reset the section ID to default
! Material Id = {CD492DD8-58D2-4C9F-9835-BF9EF231AB8C}
/com,*********** Elements for Body 2 'COLLAR' ***********
et,2,187
MAT,2 $ TYPE,2 $ REAL,2 $ SECNUM,2 $ ESYS,0    ! ELEMNODES = 10
eblock,21,COMPACT,,1543
(21i9)
       70      609      755      992      919     1475     2424     1481     1480     2422     3153
       71      609      992      856      919     1481     2941     1479     1480     3153     2938
       72      608      755      992      609     1470     2424     1473     1468     1475     1481
       73      608      992      856      609     1473     2941     1471     1468     1481     1479
       74      755      992      919      924     2424     3153     2422     2423     3170     3152
       75      856      919      992      924     2938     3153     2941     2939     3152     3170
       76      856      992      869      926     2941     2974     2937     2940     3178     2973
       77      608      856      992      869     1471     2941     1473     1472     2937     2974
       78      751      869      992      926     2399     2974     2403     2401     2973     3178
       79      751      992      924      926     2403     3170     2400     2401     3178     3168
       80      608      992      755      751     1473     2424     1470     1469     2403     2398
       81      751      992      755      924     2403     2424     2398     2400     3170     2423
       82      900      906      991      907     3090     3113     3092     3091     3109     3117
       83      732      991      733      906     2281     2286     2277     2278     3113     2285
       84      733      991      900      906     2286     3092     2284     2285     3113     3090
       85      733      991      835      900     2286     2863     2282     2284     3092     2862
       86      665      991      835      733     1850     2863     1848     1847     2286     2282
       87      666      840      991      907     1854     2879     1856     1855     2878     3117
       88      840      900      991      907     2877     3092     2879     2878     3091     3117
       89      665      732      991      733     1846     2281     1850     1847     2277     2286
! ... 1524 like lines cut
secnum,1    ! reset the section ID to default
! Material Id = {23B2ED0A-7A94-48FA-B2DF-7FA03AF3DD14}
/com,*********** Elements for Body 3 'Knucle Pin' ***********
et,3,187
MAT,3 $ TYPE,3 $ REAL,3 $ SECNUM,3 $ ESYS,0    ! ELEMNODES = 10
eblock,21,COMPACT,,6440
(21i9)
     1613     3936     4826     4240     4527     8893    10802     8889     8892    12455    10801
     1614     3330     3936     4826     4240     4965     8893     4968     4967     8889    10802
     1615     3480     4240     4826     4527     6114    10802     6117     6116    10801    12455
     1616     3330     4826     3480     4240     4968     6117     4963     4967    10802     6114
     1617     3330     3936     3937     4826     4965     8886     4966     4968     8893     8898
     1618     3480     4826     3491     4527     6117     6202     6110     6116    12455     6201
     1619     3330     3480     4826     3491     4963     6117     4968     4964     6110     6202
     1620     3936     4218     4826     4527     8888    10671     8893     8892    10669    12455
     1621     3936     3937     4826     4218     8886     8898     8893     8888     8896    10671
     1622     3493     4218     4826     4820     6216    10671     6220     6219    10670    13582
     1623     3491     4826     3493     4218     6202     6220     6197     6200    10671     6216
     1624     3477     4826     3937     4820     6098     8898     6096     6097    13582     8897
     1625     3937     4826     4218     4820     8898    10671     8896     8897    13582    10670
     1626     3491     4826     4218     4527     6202    10671     6200     6201    12455    10669
     1627     3330     3937     3477     4826     4966     6096     4962     4968     8898     6098
     1628     3330     3477     3491     4826     4962     6094     4964     4968     6098     6202
     1629     4140     4825     4407     4585    10099    11898    10095    10096    12765    11893
     1630     4181     4825     4585     4586    10450    12765    10446    10447    12768    12760
     1631     3960     4140     4825     4407     9038    10099     9040     9039    10095    11898
     1632     3957     4825     3958     4301     9022     9029     9016     9020    11199     9028
! ... 6421 like lines cut
secnum,1    ! reset the section ID to default
! Material Id = {1B52915B-D54A-4003-9644-8FB44F81E8D6}
/com,*********** Elements for Body 4 'single eye' ***********
et,4,187
MAT,4 $ TYPE,4 $ REAL,4 $ SECNUM,4 $ ESYS,0    ! ELEMNODES = 10
eblock,21,COMPACT,,10664
(21i9)
     8053    15119    15197    16078    15765    25997    26518    26002    25999    26514    29592
     8054    15035    16078    15119    15197    25518    26002    25510    25511    26518    25997
     8055    14420    16078    15119    15035    21669    26002    21668    21667    25518    25510
     8056    14420    14454    15119    16078    21663    21834    21668    21669    21835    26002
     8057    14902    15119    16078    15765    24487    26002    24497    24493    25999    29592
     8058    14454    16078    14902    15119    21835    24497    21833    21834    26002    24487
     8059    14454    16078    14461    14902    21835    21865    21832    21833    24497    21862
     8060    14402    14461    14454    16078    21529    21832    21528    21533    21865    21835
     8061    14402    16078    14420    15035    21533    21669    21525    21531    25518    21667
     8062    14402    14454    14420    16078    21528    21663    21525    21533    21835    21669
     8063    14402    14461    16078    15313    21529    21865    21533    21532    21864    27290
     8064    14461    14902    16078    15313    21862    24497    21865    21864    24489    27290
     8065    15035    15313    16078    16053    25513    27290    25518    25517    27289    30553
     8066    15313    15765    16078    16053    27285    29592    27290    27289    29591    30553
     8067    14402    16078    15035    15313    21533    25518    21531    21532    27290    25513
     8068    14814    16077    15263    14847    23983    26960    23982    23979    24223    24221
     8069    14847    15263    14992    16077    24221    25209    24219    24223    26960    25215
     8070    14847    14992    14853    16077    24219    24251    24217    24223    25215    24253
     8071    14814    14853    16077    14847    23980    24253    23983    23979    24217    24223
     8072    14992    16077    15263    15081    25215    26960    25209    25208    25794    25790
! ... 10645 like lines cut
secnum,1    ! reset the section ID to default
! Material Id = {5814ECE3-4E46-499E-8704-F55B39CA6D1A}
/com,*********** Elements for Body 5 'double eye' ***********
et,5,187
MAT,5 $ TYPE,5 $ REAL,5 $ SECNUM,5 $ ESYS,0    ! ELEMNODES = 10
eblock,21,COMPACT,,15272
(21i9)
    18717    33975    34188    34017    34118    54670    54763    54666    54669    55047    54762
    18718    33974    34017    34188    34118    54660    54763    54663    54662    54762    55047
    18719    33974    34188    34100    34118    54663    55042    54661    54662    55047    55041
    18720    33975    34100    34188    34118    54668    55042    54670    54669    55041    55047
    18721    33586    34188    33974    34017    52968    54663    52965    52967    54763    54660
    18722    32535    33999    34188    34012    46779    54698    46782    46780    54693    54746
    18723    32535    33974    34188    33999    46778    54663    46782    46779    54659    54698
    18724    33974    34188    33999    34100    54663    54698    54659    54661    55042    54697
    18725    33999    34188    34012    34100    54698    54746    54693    54697    55042    54743
    18726    33975    34188    34016    34017    54670    54761    54665    54666    54763    54757
    18727    33586    34016    34188    34017    52966    54761    52968    52967    54757    54763
    18728    32535    33586    34188    33974    46777    52968    46782    46778    52965    54663
    18729    33975    34016    34188    34100    54665    54761    54670    54668    54759    55042
    18730    32535    34188    33586    34016    46782    52968    46777    46781    54761    52966
    18731    32535    34012    34188    34016    46780    54746    46782    46781    54740    54761
    18732    34012    34188    34016    34100    54746    54761    54740    54743    55042    54759
    18733    32583    32646    34187    33628    47199    47688    47211    47206    47687    53149
    18734    32458    34187    32583    32646    46345    47211    46342    46343    47688    47199
    18735    32583    34187    32751    33628    47211    48392    47200    47206    53149    48390
    18736    32458    32583    34187    32751    46342    47211    46345    46344    47200    48392
! ... 15253 like lines cut
secnum,1    ! reset the section ID to default
! Material Id = {BB1F8AAC-789F-43B8-8B2E-25B1FE2EA51C}
/wb,elem,end               !  done creating elements
toffst,273.15,      ! Temperature offset from absolute zero
/com,*********** Set Reference Temperature ***********
tref,22.
/wb,mat,start              !  starting to send materials
/com,*********** Send Materials ***********
Temperature = 'TEMP' ! Temperature
MP,DENS,1,7.85e-09,	! tonne mm^-3
MP,ALPX,1,1.2e-05,	! C^-1
MP,C,1,434000000,	! mm^2 s^-2 C^-1
MP,KXX,1,60.5,	! tonne mm s^-3 C^-1
MP,RSVX,1,0.00017,	! ohm mm
MP,EX,1,200000,	! tonne s^-2 mm^-1
MP,NUXY,1,0.3,
MP,MURX,1,10000,
MP,UVID,1,8e350903-ecd5-4555-82bc-ab912cf838ff
MP,UMID,1,59002a79-71c2-428e-906b-55d7dbee100e

Temperature = 'TEMP' ! Temperature
MP,DENS,2,7.85e-09,	! tonne mm^-3
MP,ALPX,2,1.2e-05,	! C^-1
MP,C,2,434000000,	! mm^2 s^-2 C^-1
MP,KXX,2,60.5,	! tonne mm s^-3 C^-1
MP,RSVX,2,0.00017,	! ohm mm
MP,EX,2,200000,	! tonne s^-2 mm^-1
MP,NUXY,2,0.3,
MP,MURX,2,10000,
MP,UVID,2,8e350903-ecd5-4555-82bc-ab912cf838ff
MP,UMID,2,59002a79-71c2-428e-906b-55d7dbee100e

Temperature = 'TEMP' ! Temperature
MP,DENS,3,7.85e-09,	! tonne mm^-3
MP,ALPX,3,1.2e-05,	! C^-1
MP,C,3,434000000,	! mm^2 s^-2 C^-1
MP,KXX,3,60.5,	! tonne mm s^-3 C^-1
MP,RSVX,3,0.00017,	! ohm mm
MP,EX,3,200000,	! tonne s^-2 mm^-1
MP,NUXY,3,0.3,
MP,MURX,3,10000,
MP,UVID,3,8e350903-ecd5-4555-82bc-ab912cf838ff
MP,UMID,3,59002a79-71c2-428e-906b-55d7dbee100e

Temperature = 'TEMP' ! Temperature
MP,DENS,4,7.85e-09,	! tonne mm^-3
MP,ALPX,4,1.2e-05,	! C^-1
MP,C,4,434000000,	! mm^2 s^-2 C^-1
MP,KXX,4,60.5,	! tonne mm s^-3 C^-1
MP,RSVX,4,0.00017,	! ohm mm
MP,EX,4,200000,	! tonne s^-2 mm^-1
MP,NUXY,4,0.3,
MP,MURX,4,10000,
MP,UVID,4,8e350903-ecd5-4555-82bc-ab912cf838ff
MP,UMID,4,59002a79-71c2-428e-906b-55d7dbee100e

Temperature = 'TEMP' ! Temperature
MP,DENS,5,7.85e-09,	! tonne mm^-3
MP,ALPX,5,1.2e-05,	! C^-1
MP,C,5,434000000,	! mm^2 s^-2 C^-1
MP,KXX,5,60.5,	! tonne mm s^-3 C^-1
MP,RSVX,5,0.00017,	! ohm mm
MP,EX,5,200000,	! tonne s^-2 mm^-1
MP,NUXY,5,0.3,
MP,MURX,5,10000,
MP,UVID,5,8e350903-ecd5-4555-82bc-ab912cf838ff
MP,UMID,5,59002a79-71c2-428e-906b-55d7dbee100e

/wb,mat,end                !  done sending materials
!************************* Model Summary ********************
! TAPPER PIN,	Structural Steel,	matid,	1
! COLLAR,	Structural Steel,	matid,	2
! Knucle Pin,	Structural Steel,	matid,	3
! single eye,	Structural Steel,	matid,	4
! double eye,	Structural Steel,	matid,	5
!************************* End Model Summary ********************
! get the diagonal of the bounding box. Needed later for other things
*get,_xmin,node,,mnloc,x
*get,_ymin,node,,mnloc,y
*get,_zmin,node,,mnloc,z
*get,_xmax,node,,mxloc,x
*get,_ymax,node,,mxloc,y
*get,_zmax,node,,mxloc,z
_ASMDIAG=(_xmax-_xmin)*(_xmax-_xmin)+(_ymax-_ymin)*(_ymax-_ymin)+(_zmax-_zmin)*(_zmax-_zmin)
_ASMDIAG=SQRT(_ASMDIAG)
/wb,contact,start          !  starting to send contact
/com,*********** Create Contact "Contact Region" ***********
/com,            Real Constant Set For Above Contact Is 7 & 6 
*set,tid,7
*set,cid,6
r,tid
r,cid
et,tid,170
et,cid,174
MAT,7 $ TYPE,7 $ REAL,7 $ SECNUM,7 $ ESYS,0    ! ELEMNODES = 8
eblock,21,COMPACT,,60
(21i9)
    42985       81      127      125       80      398      485      396      395
    42986       82      129      127       81      400      488      398      397
    42987       83      131      129       82      402      491      400      399
    42988       84      133      131       83      404      494      402      401
    42989       85      135      133       84      406      497      404      403
    42990       95      155      153       94      426      527      424      423
    42991       96      157      155       95      428      530      426      425
    42992       97      159      157       96      430      533      428      427
    42993       98      161      159       97      432      536      430      429
    42994       99      163      161       98      434      539      432      431
    42995      127      128      126      125      487      486      484      485
    42996      129      130      128      127      490      489      487      488
    42997      131      132      130      129      493      492      490      491
    42998      133      134      132      131      496      495      493      494
    42999      135      136      134      133      499      498      496      497
    43000      155      156      154      153      529      528      526      527
    43001      157      158      156      155      532      531      529      530
    43002      159      160      158      157      535      534      532      533
    43003      161      162      160      159      538      537      535      536
    43004      163      164      162      161      541      540      538      539
! ... 41 like lines cut
secnum,1    ! reset the section ID to default
MAT,6 $ TYPE,6 $ REAL,6 $ SECNUM,6 $ ESYS,0    ! ELEMNODES = 8
eblock,21,COMPACT,,60
(21i9)
    43045       81      127      125       80      398      485      396      395
    43046       82      129      127       81      400      488      398      397
    43047       83      131      129       82      402      491      400      399
    43048       84      133      131       83      404      494      402      401
    43049       85      135      133       84      406      497      404      403
    43050       95      155      153       94      426      527      424      423
    43051       96      157      155       95      428      530      426      425
    43052       97      159      157       96      430      533      428      427
    43053       98      161      159       97      432      536      430      429
    43054       99      163      161       98      434      539      432      431
    43055      127      128      126      125      487      486      484      485
    43056      129      130      128      127      490      489      487      488
    43057      131      132      130      129      493      492      490      491
    43058      133      134      132      131      496      495      493      494
    43059      135      136      134      133      499      498      496      497
    43060      155      156      154      153      529      528      526      527
    43061      157      158      156      155      532      531      529      530
    43062      159      160      158      157      535      534      532      533
    43063      161      162      160      159      538      537      535      536
    43064      163      164      162      161      541      540      538      539
! ... 41 like lines cut
secnum,1    ! reset the section ID to default
MAT,6 $ TYPE,6 $ REAL,7 $ SECNUM,6 $ ESYS,0    ! ELEMNODES = 8
eblock,21,COMPACT,,78
(21i9)
    43105      550      552      797      797     1027     1045      797     1033
    43106      547      556      676      676     1003     1079      676     1005
    43107      550      797      596      596     1033     1393      596     1030
    43108      595      798      801      801     1385     2678      801     1387
    43109      595      801      800      800     1387     2690      800     1386
    43110      797      552      799      799     1045     1046      799     2674
    43111      596      798      595      595     1394     1385      595     1381
    43112      798      799      802      802     2677     2684      802     2679
    43113      798      802      801      801     2679     2694      801     2678
    43114      556      800      676      676     1081     1920      676     1079
    43115      676      800      801      801     1920     2690      801     1921
    43116      802      799      551      551     2684     1038      551     1039
    43117      801      802      676      676     2694     1922      676     1921
    43118      800      557      553      553     1089     1054      553     1058
    43119      595      800      553      553     1386     1058      553     1055
    43120      551      546      677      677      994      996      677     1037
    43121      552      551      799      799     1036     1038      799     1046
    43122      556      557      800      800     1078     1089      800     1081
    43123      676      802      677      677     1922     1928      677     1917
    43124      677      802      551      551     1928     1039      551     1037
! ... 59 like lines cut
secnum,1    ! reset the section ID to default
MAT,7 $ TYPE,7 $ REAL,6 $ SECNUM,7 $ ESYS,0    ! ELEMNODES = 8
eblock,21,COMPACT,,78
(21i9)
    43183      550      552      797      797     1027     1045      797     1033
    43184      547      556      676      676     1003     1079      676     1005
    43185      550      797      596      596     1033     1393      596     1030
    43186      595      798      801      801     1385     2678      801     1387
    43187      595      801      800      800     1387     2690      800     1386
    43188      797      552      799      799     1045     1046      799     2674
    43189      596      798      595      595     1394     1385      595     1381
    43190      798      799      802      802     2677     2684      802     2679
    43191      798      802      801      801     2679     2694      801     2678
    43192      556      800      676      676     1081     1920      676     1079
    43193      676      800      801      801     1920     2690      801     1921
    43194      802      799      551      551     2684     1038      551     1039
    43195      801      802      676      676     2694     1922      676     1921
    43196      800      557      553      553     1089     1054      553     1058
    43197      595      800      553      553     1386     1058      553     1055
    43198      551      546      677      677      994      996      677     1037
    43199      552      551      799      799     1036     1038      799     1046
    43200      556      557      800      800     1078     1089      800     1081
    43201      676      802      677      677     1922     1928      677     1917
    43202      677      802      551      551     1928     1039      551     1037
! ... 59 like lines cut
secnum,1    ! reset the section ID to default
keyo,cid,8,2               ! auto create asymmetric contact (from Program Controlled setting)
keyo,cid,10,0              ! adjust contact stiffness each NR iteration (from Program Controlled setting)
keyo,cid,12,5              ! bonded always
keyo,cid,18,1              ! small sliding turned on by application
keyo,cid,2,2               ! MPC for bonded contacts (from Program Controlled setting)
keyo,tid,5,0               ! Automatic constraint type detection
keyo,cid,4,2               ! on nodal point - normal to target surface (from Program Controlled setting)
keyo,cid,9,1               ! ignore initial gaps/penetration
keyo,cid,7,0               ! No Prediction
rmod,tid,3,1.       ! FKN
rmod,tid,5,0.       ! ICONT
rmod,tid,6,0.       ! PINB
rmod,tid,10,0.      ! CNOF
rmod,tid,12,0.      ! FKT
rmod,tid,36,38      ! WB DSID
rmod,cid,3,1.       ! FKN
rmod,cid,5,0.       ! ICONT
rmod,cid,6,0.       ! PINB
rmod,cid,10,0.      ! CNOF
rmod,cid,12,0.      ! FKT
rmod,cid,36,38      ! WB DSID
/com,*********** Create Contact "Contact Region 2" ***********
/com,            Real Constant Set For Above Contact Is 9 & 8 
*set,tid,9
*set,cid,8
r,tid
r,cid
et,tid,170
et,cid,174
MAT,9 $ TYPE,9 $ REAL,9 $ SECNUM,9 $ ESYS,0    ! ELEMNODES = 8
eblock,21,COMPACT,,83
(21i9)
    43261       84      133      131       83      404      494      402      401
    43262       85      135      133       84      406      497      404      403
    43263       86      137      135       85      408      500      406      405
    43264       87      139      137       86      410      503      408      407
    43265       88      141      139       87      412      506      410      409
    43266       89      143      141       88      414      509      412      411
    43267       90      145      143       89      416      512      414      413
    43268       91      147      145       90      418      515      416      415
    43269       92      149      147       91      420      518      418      417
    43270       93      151      149       92      422      521      420      419
    43271       94      153      151       93      424      524      422      421
    43272       95      155      153       94      426      527      424      423
    43273       96      157      155       95      428      530      426      425
    43274      131      132      130      129      493      492      490      491
    43275      133      134      132      131      496      495      493      494
    43276      135      136      134      133      499      498      496      497
    43277      137      138      136      135      502      501      499      500
    43278      139      140      138      137      505      504      502      503
    43279      141      142      140      139      508      507      505      506
    43280      143      144      142      141      511      510      508      509
! ... 64 like lines cut
secnum,1    ! reset the section ID to default
MAT,8 $ TYPE,8 $ REAL,8 $ SECNUM,8 $ ESYS,0    ! ELEMNODES = 8
eblock,21,COMPACT,,83
(21i9)
    43344       84      133      131       83      404      494      402      401
    43345       85      135      133       84      406      497      404      403
    43346       86      137      135       85      408      500      406      405
    43347       87      139      137       86      410      503      408      407
    43348       88      141      139       87      412      506      410      409
    43349       89      143      141       88      414      509      412      411
    43350       90      145      143       89      416      512      414      413
    43351       91      147      145       90      418      515      416      415
    43352       92      149      147       91      420      518      418      417
    43353       93      151      149       92      422      521      420      419
    43354       94      153      151       93      424      524      422      421
    43355       95      155      153       94      426      527      424      423
    43356       96      157      155       95      428      530      426      425
    43357      131      132      130      129      493      492      490      491
    43358      133      134      132      131      496      495      493      494
    43359      135      136      134      133      499      498      496      497
    43360      137      138      136      135      502      501      499      500
    43361      139      140      138      137      505      504      502      503
    43362      141      142      140      139      508      507      505      506
    43363      143      144      142      141      511      510      508      509
! ... 64 like lines cut
secnum,1    ! reset the section ID to default
MAT,8 $ TYPE,8 $ REAL,9 $ SECNUM,8 $ ESYS,0    ! ELEMNODES = 8
eblock,21,COMPACT,,146
(21i9)
    43427     3328     3339     3329     3329     4947     4955     3329     4946
    43428     3334     3333     3918     3918     4989     4992     3918     5002
    43429     3918     3333     3919     3919     4992     4993     3919     8756
    43430     3334     3918     3920     3920     5002     8757     3920     5003
    43431     3337     3336     3921     3921     5017     5020     3921     5030
    43432     3921     3336     3922     3922     5020     5021     3922     8779
    43433     3337     3921     3923     3923     5030     8780     3923     5031
    43434     3337     3923     3338     3338     5031     5040     3338     5027
    43435     3338     3923     3924     3924     5040     8796     3924     5041
    43436     3332     3331     3925     3925     4969     4972     3925     4982
    43437     3925     3331     3318     3318     4972     4853     3318     4857
    43438     3332     3925     3919     3919     4982     8764     3919     4981
    43439     3919     3925     3926     3926     8764     8811     3926     8765
    43440     3926     3925     3927     3927     8811     8812     3927     8817
    43441     3919     3926     3928     3928     8765     8818     3928     8766
    43442     3332     3919     3333     3333     4981     4993     3333     4978
    43443     3919     3928     3918     3918     8766     8758     3918     8756
    43444     3335     3334     3920     3920     4999     5003     3920     5012
    43445     3335     3920     3922     3922     5012     8772     3922     5013
    43446     3922     3920     3929     3929     8772     8773     3929     8790
! ... 127 like lines cut
secnum,1    ! reset the section ID to default
MAT,9 $ TYPE,9 $ REAL,8 $ SECNUM,9 $ ESYS,0    ! ELEMNODES = 8
eblock,21,COMPACT,,146
(21i9)
    43573     3328     3339     3329     3329     4947     4955     3329     4946
    43574     3334     3333     3918     3918     4989     4992     3918     5002
    43575     3918     3333     3919     3919     4992     4993     3919     8756
    43576     3334     3918     3920     3920     5002     8757     3920     5003
    43577     3337     3336     3921     3921     5017     5020     3921     5030
    43578     3921     3336     3922     3922     5020     5021     3922     8779
    43579     3337     3921     3923     3923     5030     8780     3923     5031
    43580     3337     3923     3338     3338     5031     5040     3338     5027
    43581     3338     3923     3924     3924     5040     8796     3924     5041
    43582     3332     3331     3925     3925     4969     4972     3925     4982
    43583     3925     3331     3318     3318     4972     4853     3318     4857
    43584     3332     3925     3919     3919     4982     8764     3919     4981
    43585     3919     3925     3926     3926     8764     8811     3926     8765
    43586     3926     3925     3927     3927     8811     8812     3927     8817
    43587     3919     3926     3928     3928     8765     8818     3928     8766
    43588     3332     3919     3333     3333     4981     4993     3333     4978
    43589     3919     3928     3918     3918     8766     8758     3918     8756
    43590     3335     3334     3920     3920     4999     5003     3920     5012
    43591     3335     3920     3922     3922     5012     8772     3922     5013
    43592     3922     3920     3929     3929     8772     8773     3929     8790
! ... 127 like lines cut
secnum,1    ! reset the section ID to default
keyo,cid,8,2               ! auto create asymmetric contact (from Program Controlled setting)
keyo,cid,10,0              ! adjust contact stiffness each NR iteration (from Program Controlled setting)
keyo,cid,12,5              ! bonded always
keyo,cid,18,1              ! small sliding turned on by application
keyo,cid,2,2               ! MPC for bonded contacts (from Program Controlled setting)
keyo,tid,5,0               ! Automatic constraint type detection
keyo,cid,4,2               ! on nodal point - normal to target surface (from Program Controlled setting)
keyo,cid,9,1               ! ignore initial gaps/penetration
keyo,cid,7,0               ! No Prediction
rmod,tid,3,1.       ! FKN
rmod,tid,5,0.       ! ICONT
rmod,tid,6,0.       ! PINB
rmod,tid,10,0.      ! CNOF
rmod,tid,12,0.      ! FKT
rmod,tid,36,41      ! WB DSID
rmod,cid,3,1.       ! FKN
rmod,cid,5,0.       ! ICONT
rmod,cid,6,0.       ! PINB
rmod,cid,10,0.      ! CNOF
rmod,cid,12,0.      ! FKT
rmod,cid,36,41      ! WB DSID
/com,*********** Create Contact "Contact Region 3" ***********
/com,            Real Constant Set For Above Contact Is 11 & 10 
*set,tid,11
*set,cid,10
r,tid
r,cid
et,tid,170
et,cid,174
MAT,11 $ TYPE,11 $ REAL,11 $ SECNUM,11 $ ESYS,0    ! ELEMNODES = 8
eblock,21,COMPACT,,162
(21i9)
    43719      679      678      680      680     1932     1933      680     1941
    43720      561      560      681      681     1110     1112      681     1120
    43721      678      559      682      682     1104     1105      682     1934
    43722      560      558      683      683     1095     1098      683     1113
    43723      558      679      684      684     1097     1942      684     1099
    43724      559      561      685      685     1101     1121      685     1106
    43725      680      678      686      686     1933     1935      686     1949
    43726      679      680      687      687     1941     1950      687     1943
    43727      681      560      688      688     1112     1114      688     1957
    43728      561      681      689      689     1120     1958      689     1122
    43729      682      559      671      671     1105     1103      671     1886
    43730      678      682      686      686     1934     1966      686     1935
    43731      686      682      670      670     1966     1878      670     1879
    43732      679      687      684      684     1943     1976      684     1942
    43733      684      687      649      649     1976     1742      649     1741
    43734      684      649      650      650     1741     1740      650     1748
    43735      687      680      690      690     1950     1951      690     1993
    43736      559      685      671      671     1106     1887      671     1103
    43737      685      561      689      689     1121     1122      689     1983
    43738      685      689      672      672     1983     1894      672     1893
! ... 143 like lines cut
secnum,1    ! reset the section ID to default
MAT,10 $ TYPE,10 $ REAL,10 $ SECNUM,10 $ ESYS,0    ! ELEMNODES = 8
eblock,21,COMPACT,,162
(21i9)
    43881      679      678      680      680     1932     1933      680     1941
    43882      561      560      681      681     1110     1112      681     1120
    43883      678      559      682      682     1104     1105      682     1934
    43884      560      558      683      683     1095     1098      683     1113
    43885      558      679      684      684     1097     1942      684     1099
    43886      559      561      685      685     1101     1121      685     1106
    43887      680      678      686      686     1933     1935      686     1949
    43888      679      680      687      687     1941     1950      687     1943
    43889      681      560      688      688     1112     1114      688     1957
    43890      561      681      689      689     1120     1958      689     1122
    43891      682      559      671      671     1105     1103      671     1886
    43892      678      682      686      686     1934     1966      686     1935
    43893      686      682      670      670     1966     1878      670     1879
    43894      679      687      684      684     1943     1976      684     1942
    43895      684      687      649      649     1976     1742      649     1741
    43896      684      649      650      650     1741     1740      650     1748
    43897      687      680      690      690     1950     1951      690     1993
    43898      559      685      671      671     1106     1887      671     1103
    43899      685      561      689      689     1121     1122      689     1983
    43900      685      689      672      672     1983     1894      672     1893
! ... 143 like lines cut
secnum,1    ! reset the section ID to default
MAT,10 $ TYPE,10 $ REAL,11 $ SECNUM,10 $ ESYS,0    ! ELEMNODES = 8
eblock,21,COMPACT,,256
(21i9)
    44043     3317     3318     3476     3476     4845     4854     3476     4846
    44044     3329     3330     3477     3477     4954     4962     3477     4956
    44045     3328     3329     3478     3478     4946     4957     3478     4950
    44046     3315     3317     3479     3479     4827     4847     3479     4831
    44047     3330     3319     3480     3480     4861     4864     3480     4963
    44048     3318     3316     3481     3481     4837     4841     3481     4855
    44049     3317     3476     3482     3482     4846     6085     3482     4848
    44050     3476     3318     3483     3483     4854     4856     3483     6086
    44051     3483     3318     3481     3481     4856     4855     3481     6118
    44052     3483     3481     3484     3484     6118     6119     3484     6133
    44053     3476     3483     3485     3485     6086     6134     3485     6087
    44054     3317     3482     3479     3479     4848     6105     3479     4847
    44055     3479     3482     3486     3486     6105     6124     3486     6106
    44056     3482     3476     3487     3487     6085     6088     3487     6125
    44057     3329     3477     3488     3488     4956     6092     3488     4958
    44058     3329     3488     3478     3478     4958     6099     3478     4957
    44059     3478     3488     3489     3489     6099     6171     3489     6100
    44060     3488     3477     3490     3490     6092     6093     3490     6172
    44061     3477     3330     3491     3491     4962     4964     3491     6094
    44062     3491     3330     3480     3480     4964     4963     3480     6110
! ... 237 like lines cut
secnum,1    ! reset the section ID to default
MAT,11 $ TYPE,11 $ REAL,10 $ SECNUM,11 $ ESYS,0    ! ELEMNODES = 8
eblock,21,COMPACT,,256
(21i9)
    44299     3317     3318     3476     3476     4845     4854     3476     4846
    44300     3329     3330     3477     3477     4954     4962     3477     4956
    44301     3328     3329     3478     3478     4946     4957     3478     4950
    44302     3315     3317     3479     3479     4827     4847     3479     4831
    44303     3330     3319     3480     3480     4861     4864     3480     4963
    44304     3318     3316     3481     3481     4837     4841     3481     4855
    44305     3317     3476     3482     3482     4846     6085     3482     4848
    44306     3476     3318     3483     3483     4854     4856     3483     6086
    44307     3483     3318     3481     3481     4856     4855     3481     6118
    44308     3483     3481     3484     3484     6118     6119     3484     6133
    44309     3476     3483     3485     3485     6086     6134     3485     6087
    44310     3317     3482     3479     3479     4848     6105     3479     4847
    44311     3479     3482     3486     3486     6105     6124     3486     6106
    44312     3482     3476     3487     3487     6085     6088     3487     6125
    44313     3329     3477     3488     3488     4956     6092     3488     4958
    44314     3329     3488     3478     3478     4958     6099     3478     4957
    44315     3478     3488     3489     3489     6099     6171     3489     6100
    44316     3488     3477     3490     3490     6092     6093     3490     6172
    44317     3477     3330     3491     3491     4962     4964     3491     6094
    44318     3491     3330     3480     3480     4964     4963     3480     6110
! ... 237 like lines cut
secnum,1    ! reset the section ID to default
keyo,cid,8,2               ! auto create asymmetric contact (from Program Controlled setting)
keyo,cid,10,0              ! adjust contact stiffness each NR iteration (from Program Controlled setting)
keyo,cid,12,5              ! bonded always
keyo,cid,18,1              ! small sliding turned on by application
keyo,cid,2,2               ! MPC for bonded contacts (from Program Controlled setting)
keyo,tid,5,0               ! Automatic constraint type detection
keyo,cid,4,2               ! on nodal point - normal to target surface (from Program Controlled setting)
keyo,cid,9,1               ! ignore initial gaps/penetration
keyo,cid,7,0               ! No Prediction
rmod,tid,3,1.       ! FKN
rmod,tid,5,0.       ! ICONT
rmod,tid,6,0.       ! PINB
rmod,tid,10,0.      ! CNOF
rmod,tid,12,0.      ! FKT
rmod,tid,36,44      ! WB DSID
rmod,cid,3,1.       ! FKN
rmod,cid,5,0.       ! ICONT
rmod,cid,6,0.       ! PINB
rmod,cid,10,0.      ! CNOF
rmod,cid,12,0.      ! FKT
rmod,cid,36,44      ! WB DSID
/com,*********** Create Contact "Contact Region 4" ***********
/com,            Real Constant Set For Above Contact Is 13 & 12 
*set,tid,13
*set,cid,12
r,tid
r,cid
et,tid,170
et,cid,174
MAT,13 $ TYPE,13 $ REAL,13 $ SECNUM,13 $ ESYS,0    ! ELEMNODES = 8
eblock,21,COMPACT,,102
(21i9)
    44555      648      844      649      649     1735     1743      649     1731
    44556      603      604      844      844     1434     1443      844     1437
    44557      650      845      651      651     1750     1759      651     1746
    44558      606      607      845      845     1454     1464      845     1457
    44559      640      641      846      846     1682     1692      846     1685
    44560      576      846      577      577     1237     1244      577     1234
    44561      637      638      847      847     1663     1673      847     1667
    44562      574      847      575      575     1221     1229      575     1218
    44563      652      848      653      653     1766     1770      653     1763
    44564      609      610      848      848     1474     1484      848     1478
    44565      646      849      647      647     1720     1728      647     1718
    44566      600      601      849      849     1417     1425      849     1419
    44567      634      635      850      850     1645     1654      850     1648
    44568      572      850      573      573     1207     1215      573     1204
    44569      643      644      851      851     1701     1711      851     1704
    44570      578      851      579      579     1252     1257      579     1249
    44571      598      852      611      611     1407     1489      611     1404
    44572      570      653      852      852     1193     1771      852     1195
    44573      597      599      853      853     1398     1414      853     1401
    44574      571      853      646      646     1201     1721      646     1200
! ... 83 like lines cut
secnum,1    ! reset the section ID to default
MAT,12 $ TYPE,12 $ REAL,12 $ SECNUM,12 $ ESYS,0    ! ELEMNODES = 8
eblock,21,COMPACT,,102
(21i9)
    44657      648      844      649      649     1735     1743      649     1731
    44658      603      604      844      844     1434     1443      844     1437
    44659      650      845      651      651     1750     1759      651     1746
    44660      606      607      845      845     1454     1464      845     1457
    44661      640      641      846      846     1682     1692      846     1685
    44662      576      846      577      577     1237     1244      577     1234
    44663      637      638      847      847     1663     1673      847     1667
    44664      574      847      575      575     1221     1229      575     1218
    44665      652      848      653      653     1766     1770      653     1763
    44666      609      610      848      848     1474     1484      848     1478
    44667      646      849      647      647     1720     1728      647     1718
    44668      600      601      849      849     1417     1425      849     1419
    44669      634      635      850      850     1645     1654      850     1648
    44670      572      850      573      573     1207     1215      573     1204
    44671      643      644      851      851     1701     1711      851     1704
    44672      578      851      579      579     1252     1257      579     1249
    44673      598      852      611      611     1407     1489      611     1404
    44674      570      653      852      852     1193     1771      852     1195
    44675      597      599      853      853     1398     1414      853     1401
    44676      571      853      646      646     1201     1721      646     1200
! ... 83 like lines cut
secnum,1    ! reset the section ID to default
MAT,12 $ TYPE,12 $ REAL,13 $ SECNUM,12 $ ESYS,0    ! ELEMNODES = 8
eblock,21,COMPACT,,138
(21i9)
    44759    32450    32463    32453    32453    46274    46299    32453    46273
    44760    32459    32465    32483    32483    46346    46387    32483    46347
    44761    32444    32467    32460    32460    46230    46354    32460    46229
    44762    32450    32480    32463    32463    46276    46373    32463    46274
    44763    32446    32501    32498    32498    46248    46556    32498    46247
    44764    32448    32470    32489    32489    46258    46417    32489    46259
    44765    32454    32482    32473    32473    46306    46435    32473    46305
    44766    32451    32492    32472    32472    46284    46429    32472    46283
    44767    32446    32498    32471    32471    46247    46423    32471    46245
    44768    32473    32458    32488    32488    46338    46340    32488    46436
    44769    32455    32462    32477    32477    46312    46367    32477    46313
    44770    32456    32478    32499    32499    46319    46471    32499    46322
    44771    32459    32484    32465    32465    46348    46388    32465    46346
    44772    32456    32499    32485    32485    46322    46508    32485    46320
    44773    32449    32464    32481    32481    46265    46380    32481    46267
    44774    32449    32493    32467    32467    46268    46397    32467    46266
    44775    32459    32503    32484    32484    46350    46501    32484    46348
    44776    32457    32461    32479    32479    46327    46361    32479    46329
    44777    32446    32471    32486    32486    46245    46422    32486    46246
    44778    32457    32497    32472    32472    46331    46430    32472    46328
! ... 119 like lines cut
secnum,1    ! reset the section ID to default
MAT,13 $ TYPE,13 $ REAL,12 $ SECNUM,13 $ ESYS,0    ! ELEMNODES = 8
eblock,21,COMPACT,,138
(21i9)
    44897    32450    32463    32453    32453    46274    46299    32453    46273
    44898    32459    32465    32483    32483    46346    46387    32483    46347
    44899    32444    32467    32460    32460    46230    46354    32460    46229
    44900    32450    32480    32463    32463    46276    46373    32463    46274
    44901    32446    32501    32498    32498    46248    46556    32498    46247
    44902    32448    32470    32489    32489    46258    46417    32489    46259
    44903    32454    32482    32473    32473    46306    46435    32473    46305
    44904    32451    32492    32472    32472    46284    46429    32472    46283
    44905    32446    32498    32471    32471    46247    46423    32471    46245
    44906    32473    32458    32488    32488    46338    46340    32488    46436
    44907    32455    32462    32477    32477    46312    46367    32477    46313
    44908    32456    32478    32499    32499    46319    46471    32499    46322
    44909    32459    32484    32465    32465    46348    46388    32465    46346
    44910    32456    32499    32485    32485    46322    46508    32485    46320
    44911    32449    32464    32481    32481    46265    46380    32481    46267
    44912    32449    32493    32467    32467    46268    46397    32467    46266
    44913    32459    32503    32484    32484    46350    46501    32484    46348
    44914    32457    32461    32479    32479    46327    46361    32479    46329
    44915    32446    32471    32486    32486    46245    46422    32486    46246
    44916    32457    32497    32472    32472    46331    46430    32472    46328
! ... 119 like lines cut
secnum,1    ! reset the section ID to default
keyo,cid,8,2               ! auto create asymmetric contact (from Program Controlled setting)
keyo,cid,10,0              ! adjust contact stiffness each NR iteration (from Program Controlled setting)
keyo,cid,12,5              ! bonded always
keyo,cid,18,1              ! small sliding turned on by application
keyo,cid,2,2               ! MPC for bonded contacts (from Program Controlled setting)
keyo,tid,5,0               ! Automatic constraint type detection
keyo,cid,4,2               ! on nodal point - normal to target surface (from Program Controlled setting)
keyo,cid,9,1               ! ignore initial gaps/penetration
keyo,cid,7,0               ! No Prediction
rmod,tid,3,1.       ! FKN
rmod,tid,5,0.       ! ICONT
rmod,tid,6,0.       ! PINB
rmod,tid,10,0.      ! CNOF
rmod,tid,12,0.      ! FKT
rmod,tid,36,47      ! WB DSID
rmod,cid,3,1.       ! FKN
rmod,cid,5,0.       ! ICONT
rmod,cid,6,0.       ! PINB
rmod,cid,10,0.      ! CNOF
rmod,cid,12,0.      ! FKT
rmod,cid,36,47      ! WB DSID
/com,*********** Create Contact "Contact Region 5" ***********
/com,            Real Constant Set For Above Contact Is 15 & 14 
*set,tid,15
*set,cid,14
r,tid
r,cid
et,tid,170
et,cid,174
MAT,15 $ TYPE,15 $ REAL,15 $ SECNUM,15 $ ESYS,0    ! ELEMNODES = 8
eblock,21,COMPACT,,393
(21i9)
    45035     3553     3545     3554     3554     6538     6539     3554     6583
    45036     3555     3553     3556     3556     6584     6585     3556     6598
    45037     3560     3559     3561     3561     6623     6624     3561     6628
    45038     3562     3560     3563     3563     6629     6630     3563     6641
    45039     3552     3562     3564     3564     6577     6642     3564     6578
    45040     3564     3562     3565     3565     6642     6643     3565     6653
    45041     3552     3564     3566     3566     6578     6654     3566     6579
    45042     3566     3564     3359     3359     6654     5191     3359     5192
    45043     3566     3359     3358     3358     5192     5183     3358     5184
    45044     3564     3565     3568     3568     6653     6659     3568     6655
    45045     3565     3562     3563     3563     6643     6641     3563     6648
    45046     3565     3563     3569     3569     6648     6649     3569     6660
    45047     3565     3569     3570     3570     6660     6676     3570     6661
    45048     3569     3563     3571     3571     6649     6650     3571     6677
    45049     3571     3563     3561     3561     6650     6634     3561     6635
    45050     3571     3561     3572     3572     6635     6636     3572     6690
    45051     3571     3572     3573     3573     6690     6696     3573     6691
    45052     3572     3561     3558     3558     6636     6618     3558     6619
    45053     3569     3571     3574     3574     6677     6692     3574     6678
    45054     3572     3558     3556     3556     6619     6605     3556     6606
! ... 374 like lines cut
secnum,1    ! reset the section ID to default
MAT,14 $ TYPE,14 $ REAL,14 $ SECNUM,14 $ ESYS,0    ! ELEMNODES = 8
eblock,21,COMPACT,,393
(21i9)
    45428     3553     3545     3554     3554     6538     6539     3554     6583
    45429     3555     3553     3556     3556     6584     6585     3556     6598
    45430     3560     3559     3561     3561     6623     6624     3561     6628
    45431     3562     3560     3563     3563     6629     6630     3563     6641
    45432     3552     3562     3564     3564     6577     6642     3564     6578
    45433     3564     3562     3565     3565     6642     6643     3565     6653
    45434     3552     3564     3566     3566     6578     6654     3566     6579
    45435     3566     3564     3359     3359     6654     5191     3359     5192
    45436     3566     3359     3358     3358     5192     5183     3358     5184
    45437     3564     3565     3568     3568     6653     6659     3568     6655
    45438     3565     3562     3563     3563     6643     6641     3563     6648
    45439     3565     3563     3569     3569     6648     6649     3569     6660
    45440     3565     3569     3570     3570     6660     6676     3570     6661
    45441     3569     3563     3571     3571     6649     6650     3571     6677
    45442     3571     3563     3561     3561     6650     6634     3561     6635
    45443     3571     3561     3572     3572     6635     6636     3572     6690
    45444     3571     3572     3573     3573     6690     6696     3573     6691
    45445     3572     3561     3558     3558     6636     6618     3558     6619
    45446     3569     3571     3574     3574     6677     6692     3574     6678
    45447     3572     3558     3556     3556     6619     6605     3556     6606
! ... 374 like lines cut
secnum,1    ! reset the section ID to default
MAT,14 $ TYPE,14 $ REAL,15 $ SECNUM,14 $ ESYS,0    ! ELEMNODES = 8
eblock,21,COMPACT,,304
(21i9)
    45821    13610    13620    14290    14290    16307    16381    14290    16310
    45822    14290    13620    14291    14291    16381    16382    14291    20765
    45823    13610    14290    13618    13618    16310    16363    13618    16306
    45824    13618    14290    14292    14292    16363    20766    14292    16364
    45825    14292    14290    14291    14291    20766    20765    14291    20769
    45826    13618    14292    13617    13617    16364    16358    13617    16357
    45827    13617    14292    14293    14293    16358    20776    14293    16359
    45828    14293    14292    14294    14294    20776    20777    14294    20781
    45829    13617    14293    13616    13616    16359    16351    13616    16350
    45830    13616    14293    14295    14295    16351    20782    14295    16352
    45831    14295    14293    14296    14296    20782    20783    14296    20796
    45832    13616    14295    13615    13615    16352    16345    13615    16344
    45833    14294    14292    14291    14291    20777    20769    14291    20770
    45834    14293    14294    14296    14296    20781    20788    14296    20783
    45835    14295    14296    14297    14297    20796    20802    14297    20797
    45836    14297    14296    14298    14298    20802    20803    14298    20810
    45837    14295    14297    14299    14299    20797    20811    14299    20798
    45838    14295    14299    13615    13615    20798    16346    13615    16345
    45839    14299    14297    14300    14300    20811    20812    14300    20828
    45840    14300    14297    14301    14301    20812    20813    14301    20835
! ... 285 like lines cut
secnum,1    ! reset the section ID to default
MAT,15 $ TYPE,15 $ REAL,14 $ SECNUM,15 $ ESYS,0    ! ELEMNODES = 8
eblock,21,COMPACT,,304
(21i9)
    46125    13610    13620    14290    14290    16307    16381    14290    16310
    46126    14290    13620    14291    14291    16381    16382    14291    20765
    46127    13610    14290    13618    13618    16310    16363    13618    16306
    46128    13618    14290    14292    14292    16363    20766    14292    16364
    46129    14292    14290    14291    14291    20766    20765    14291    20769
    46130    13618    14292    13617    13617    16364    16358    13617    16357
    46131    13617    14292    14293    14293    16358    20776    14293    16359
    46132    14293    14292    14294    14294    20776    20777    14294    20781
    46133    13617    14293    13616    13616    16359    16351    13616    16350
    46134    13616    14293    14295    14295    16351    20782    14295    16352
    46135    14295    14293    14296    14296    20782    20783    14296    20796
    46136    13616    14295    13615    13615    16352    16345    13615    16344
    46137    14294    14292    14291    14291    20777    20769    14291    20770
    46138    14293    14294    14296    14296    20781    20788    14296    20783
    46139    14295    14296    14297    14297    20796    20802    14297    20797
    46140    14297    14296    14298    14298    20802    20803    14298    20810
    46141    14295    14297    14299    14299    20797    20811    14299    20798
    46142    14295    14299    13615    13615    20798    16346    13615    16345
    46143    14299    14297    14300    14300    20811    20812    14300    20828
    46144    14300    14297    14301    14301    20812    20813    14301    20835
! ... 285 like lines cut
secnum,1    ! reset the section ID to default
keyo,cid,8,2               ! auto create asymmetric contact (from Program Controlled setting)
keyo,cid,10,0              ! adjust contact stiffness each NR iteration (from Program Controlled setting)
keyo,cid,12,5              ! bonded always
keyo,cid,18,1              ! small sliding turned on by application
keyo,cid,2,2               ! MPC for bonded contacts (from Program Controlled setting)
keyo,tid,5,0               ! Automatic constraint type detection
keyo,cid,4,2               ! on nodal point - normal to target surface (from Program Controlled setting)
keyo,cid,9,1               ! ignore initial gaps/penetration
keyo,cid,7,0               ! No Prediction
rmod,tid,3,1.       ! FKN
rmod,tid,5,0.       ! ICONT
rmod,tid,6,0.       ! PINB
rmod,tid,10,0.      ! CNOF
rmod,tid,12,0.      ! FKT
rmod,tid,36,50      ! WB DSID
rmod,cid,3,1.       ! FKN
rmod,cid,5,0.       ! ICONT
rmod,cid,6,0.       ! PINB
rmod,cid,10,0.      ! CNOF
rmod,cid,12,0.      ! FKT
rmod,cid,36,50      ! WB DSID
/com,*********** Create Contact "Contact Region 6" ***********
/com,            Real Constant Set For Above Contact Is 17 & 16 
*set,tid,17
*set,cid,16
r,tid
r,cid
et,tid,170
et,cid,174
MAT,17 $ TYPE,17 $ REAL,17 $ SECNUM,17 $ ESYS,0    ! ELEMNODES = 8
eblock,21,COMPACT,,619
(21i9)
    46429     3315     3317     3479     3479     4827     4847     3479     4831
    46430     3317     3482     3479     3479     4848     6105     3479     4847
    46431     3479     3482     3486     3486     6105     6124     3486     6106
    46432     3491     3480     3492     3492     6110     6111     3492     6196
    46433     3315     3479     3355     3355     4831     5160     3355     4830
    46434     3480     3319     3380     3380     4864     4862     3380     5394
    46435     3482     3487     3497     3497     6125     6164     3497     6126
    46436     3479     3486     3498     3498     6106     6157     3498     6107
    46437     3486     3482     3497     3497     6124     6126     3497     6156
    46438     3486     3497     3500     3500     6156     6239     3500     6158
    46439     3493     3491     3501     3501     6197     6198     3501     6213
    46440     3492     3480     3502     3502     6111     6112     3502     6204
    46441     3491     3492     3501     3501     6196     6203     3501     6198
    46442     3501     3492     3503     3503     6203     6205     3503     6264
    46443     3498     3486     3504     3504     6157     6159     3504     6246
    46444     3479     3498     3355     3355     6107     5161     3355     5160
    46445     3355     3498     3356     3356     5161     5169     3356     5159
    46446     3492     3502     3505     3505     6204     6270     3505     6206
    46447     3502     3480     3380     3380     6112     5394     3380     5395
    46448     3502     3380     3381     3381     5395     5393     3381     5403
! ... 600 like lines cut
secnum,1    ! reset the section ID to default
MAT,16 $ TYPE,16 $ REAL,16 $ SECNUM,16 $ ESYS,0    ! ELEMNODES = 8
eblock,21,COMPACT,,619
(21i9)
    47048     3315     3317     3479     3479     4827     4847     3479     4831
    47049     3317     3482     3479     3479     4848     6105     3479     4847
    47050     3479     3482     3486     3486     6105     6124     3486     6106
    47051     3491     3480     3492     3492     6110     6111     3492     6196
    47052     3315     3479     3355     3355     4831     5160     3355     4830
    47053     3480     3319     3380     3380     4864     4862     3380     5394
    47054     3482     3487     3497     3497     6125     6164     3497     6126
    47055     3479     3486     3498     3498     6106     6157     3498     6107
    47056     3486     3482     3497     3497     6124     6126     3497     6156
    47057     3486     3497     3500     3500     6156     6239     3500     6158
    47058     3493     3491     3501     3501     6197     6198     3501     6213
    47059     3492     3480     3502     3502     6111     6112     3502     6204
    47060     3491     3492     3501     3501     6196     6203     3501     6198
    47061     3501     3492     3503     3503     6203     6205     3503     6264
    47062     3498     3486     3504     3504     6157     6159     3504     6246
    47063     3479     3498     3355     3355     6107     5161     3355     5160
    47064     3355     3498     3356     3356     5161     5169     3356     5159
    47065     3492     3502     3505     3505     6204     6270     3505     6206
    47066     3502     3480     3380     3380     6112     5394     3380     5395
    47067     3502     3380     3381     3381     5395     5393     3381     5403
! ... 600 like lines cut
secnum,1    ! reset the section ID to default
MAT,16 $ TYPE,16 $ REAL,17 $ SECNUM,16 $ ESYS,0    ! ELEMNODES = 8
eblock,21,COMPACT,,532
(21i9)
    47667    32394    32416    32400    32400    45974    46015    32400    45972
    47668    32388    32433    32413    32413    45927    46100    32413    45925
    47669    32395    32428    32406    32406    45982    46052    32406    45981
    47670    32406    32438    32439    32439    46053    46205    32439    46054
    47671    32393    32401    32431    32431    45965    46023    32431    45967
    47672    32399    32430    32421    32421    46010    46141    32421    46009
    47673    32416    32432    32440    32440    46116    46184    32440    46117
    47674    32397    32422    32434    32434    45997    46149    32434    45998
    47675    32410    32423    32411    32411    46079    46085    32411    46078
    47676    32392    32421    32430    32430    45959    46141    32430    45960
    47677    32417    32436    32442    32442    46121    46195    32442    46122
    47678    32380    32409    32419    32419    45864    46071    32419    45865
    47679    32386    32417    32404    32404    45913    46038    32404    45911
    47680    32386    32404    32390    32390    45911    45942    32390    45910
    47681    32382    32442    32436    32436    45882    46195    32436    45881
    47682    32383    32423    32410    32410    45887    46079    32410    45886
    47683    32389    32405    32419    32419    45933    46045    32419    45935
    47684    32397    32414    32405    32405    45996    46044    32405    45995
    47685    32398    32434    32422    32422    46004    46149    32422    46002
    47686    32389    32419    32409    32409    45935    46071    32409    45934
! ... 513 like lines cut
secnum,1    ! reset the section ID to default
MAT,17 $ TYPE,17 $ REAL,16 $ SECNUM,17 $ ESYS,0    ! ELEMNODES = 8
eblock,21,COMPACT,,532
(21i9)
    48199    32394    32416    32400    32400    45974    46015    32400    45972
    48200    32388    32433    32413    32413    45927    46100    32413    45925
    48201    32395    32428    32406    32406    45982    46052    32406    45981
    48202    32406    32438    32439    32439    46053    46205    32439    46054
    48203    32393    32401    32431    32431    45965    46023    32431    45967
    48204    32399    32430    32421    32421    46010    46141    32421    46009
    48205    32416    32432    32440    32440    46116    46184    32440    46117
    48206    32397    32422    32434    32434    45997    46149    32434    45998
    48207    32410    32423    32411    32411    46079    46085    32411    46078
    48208    32392    32421    32430    32430    45959    46141    32430    45960
    48209    32417    32436    32442    32442    46121    46195    32442    46122
    48210    32380    32409    32419    32419    45864    46071    32419    45865
    48211    32386    32417    32404    32404    45913    46038    32404    45911
    48212    32386    32404    32390    32390    45911    45942    32390    45910
    48213    32382    32442    32436    32436    45882    46195    32436    45881
    48214    32383    32423    32410    32410    45887    46079    32410    45886
    48215    32389    32405    32419    32419    45933    46045    32419    45935
    48216    32397    32414    32405    32405    45996    46044    32405    45995
    48217    32398    32434    32422    32422    46004    46149    32422    46002
    48218    32389    32419    32409    32409    45935    46071    32409    45934
! ... 513 like lines cut
secnum,1    ! reset the section ID to default
keyo,cid,8,2               ! auto create asymmetric contact (from Program Controlled setting)
keyo,cid,10,0              ! adjust contact stiffness each NR iteration (from Program Controlled setting)
keyo,cid,12,5              ! bonded always
keyo,cid,18,1              ! small sliding turned on by application
keyo,cid,2,2               ! MPC for bonded contacts (from Program Controlled setting)
keyo,tid,5,0               ! Automatic constraint type detection
keyo,cid,4,2               ! on nodal point - normal to target surface (from Program Controlled setting)
keyo,cid,9,1               ! ignore initial gaps/penetration
keyo,cid,7,0               ! No Prediction
rmod,tid,3,1.       ! FKN
rmod,tid,5,0.       ! ICONT
rmod,tid,6,0.       ! PINB
rmod,tid,10,0.      ! CNOF
rmod,tid,12,0.      ! FKT
rmod,tid,36,53      ! WB DSID
rmod,cid,3,1.       ! FKN
rmod,cid,5,0.       ! ICONT
rmod,cid,6,0.       ! PINB
rmod,cid,10,0.      ! CNOF
rmod,cid,12,0.      ! FKT
rmod,cid,36,53      ! WB DSID
/com,*********** Create Contact "Frictional - single eye To double eye" ***********
/com,            Real Constant Set For Above Contact Is 19 & 18 
*set,tid,19
*set,cid,18
r,tid
r,cid
et,tid,170
et,cid,174
MAT,19 $ TYPE,19 $ REAL,19 $ SECNUM,19 $ ESYS,0    ! ELEMNODES = 8
eblock,21,COMPACT,,368
(21i9)
    48731    14776    14802    14803    14803    23797    23920    14803    23798
    48732    14753    14770    14755    14755    23634    23649    14755    23632
    48733    14767    14803    14802    14802    23745    23920    14802    23744
    48734    14753    14775    14765    14765    23635    23729    14765    23633
    48735    14761    14790    14784    14784    23699    23843    14784    23698
    48736    14758    14807    14766    14766    23675    23739    14766    23672
    48737    14767    14802    14762    14762    23744    23706    14762    23703
    48738    14752    14774    14764    14764    23623    23719    14764    23621
    48739    14759    14787    14798    14798    23683    23861    14798    23684
    48740    14764    14797    14782    14782    23721    23830    14782    23720
    48741    14756    14782    14797    14797    23657    23830    14797    23658
    48742    14760    14768    14762    14762    23690    23704    14762    23689
    48743    14753    14765    14788    14788    23633    23730    14788    23636
    48744    14760    14801    14786    14786    23693    23855    14786    23692
    48745    14749    14773    14785    14785    23599    23780    14785    23600
    48746    14759    14798    14775    14775    23684    23792    14775    23682
    48747    14759    14761    14769    14769    23680    23697    14769    23681
    48748    14757    14806    14781    14781    23668    23826    14781    23665
    48749    14753    14788    14770    14770    23636    23762    14770    23634
    48750    14752    14754    14771    14771    23620    23641    14771    23622
! ... 349 like lines cut
secnum,1    ! reset the section ID to default
MAT,18 $ TYPE,18 $ REAL,18 $ SECNUM,18 $ ESYS,0    ! ELEMNODES = 8
eblock,21,COMPACT,,368
(21i9)
    49099    14776    14802    14803    14803    23797    23920    14803    23798
    49100    14753    14770    14755    14755    23634    23649    14755    23632
    49101    14767    14803    14802    14802    23745    23920    14802    23744
    49102    14753    14775    14765    14765    23635    23729    14765    23633
    49103    14761    14790    14784    14784    23699    23843    14784    23698
    49104    14758    14807    14766    14766    23675    23739    14766    23672
    49105    14767    14802    14762    14762    23744    23706    14762    23703
    49106    14752    14774    14764    14764    23623    23719    14764    23621
    49107    14759    14787    14798    14798    23683    23861    14798    23684
    49108    14764    14797    14782    14782    23721    23830    14782    23720
    49109    14756    14782    14797    14797    23657    23830    14797    23658
    49110    14760    14768    14762    14762    23690    23704    14762    23689
    49111    14753    14765    14788    14788    23633    23730    14788    23636
    49112    14760    14801    14786    14786    23693    23855    14786    23692
    49113    14749    14773    14785    14785    23599    23780    14785    23600
    49114    14759    14798    14775    14775    23684    23792    14775    23682
    49115    14759    14761    14769    14769    23680    23697    14769    23681
    49116    14757    14806    14781    14781    23668    23826    14781    23665
    49117    14753    14788    14770    14770    23636    23762    14770    23634
    49118    14752    14754    14771    14771    23620    23641    14771    23622
! ... 349 like lines cut
secnum,1    ! reset the section ID to default
MAT,18 $ TYPE,18 $ REAL,19 $ SECNUM,18 $ ESYS,0    ! ELEMNODES = 8
eblock,21,COMPACT,,391
(21i9)
    49467    32339    32365    32354    32354    45676    45758    32354    45675
    49468    32304    32327    32325    32325    45427    45589    32325    45426
    49469    32307    32359    32355    32355    45457    45764    32355    45456
    49470    32309    32378    32372    32372    45471    45835    32372    45470
    49471    32314    32341    32364    32364    45504    45688    32364    45506
    49472    32307    32355    32326    32326    45456    45596    32326    45455
    49473    32319    32346    32370    32370    45542    45717    32370    45543
    49474    32305    32325    32326    32326    45436    45588    32326    45437
    49475    32320    32345    32371    32371    45548    45713    32371    45551
    49476    32325    32327    32326    32326    45589    45595    32326    45588
    49477    32319    32334    32346    32346    45540    45643    32346    45542
    49478    32314    32347    32341    32341    45505    45687    32341    45504
    49479    32312    32349    32373    32373    45490    45732    32373    45492
    49480    32310    32338    32352    32352    45475    45670    32352    45476
    49481    32309    32372    32335    32335    45470    45651    32335    45468
    49482    32318    32344    32361    32361    45532    45706    32361    45534
    49483    32311    32351    32337    32337    45482    45663    32337    45481
    49484    32305    32353    32328    32328    45440    45607    32328    45438
    49485    32318    32360    32344    32344    45533    45705    32344    45532
    49486    32322    32375    32365    32365    45567    45807    32365    45565
! ... 372 like lines cut
secnum,1    ! reset the section ID to default
MAT,19 $ TYPE,19 $ REAL,18 $ SECNUM,19 $ ESYS,0    ! ELEMNODES = 8
eblock,21,COMPACT,,391
(21i9)
    49858    32339    32365    32354    32354    45676    45758    32354    45675
    49859    32304    32327    32325    32325    45427    45589    32325    45426
    49860    32307    32359    32355    32355    45457    45764    32355    45456
    49861    32309    32378    32372    32372    45471    45835    32372    45470
    49862    32314    32341    32364    32364    45504    45688    32364    45506
    49863    32307    32355    32326    32326    45456    45596    32326    45455
    49864    32319    32346    32370    32370    45542    45717    32370    45543
    49865    32305    32325    32326    32326    45436    45588    32326    45437
    49866    32320    32345    32371    32371    45548    45713    32371    45551
    49867    32325    32327    32326    32326    45589    45595    32326    45588
    49868    32319    32334    32346    32346    45540    45643    32346    45542
    49869    32314    32347    32341    32341    45505    45687    32341    45504
    49870    32312    32349    32373    32373    45490    45732    32373    45492
    49871    32310    32338    32352    32352    45475    45670    32352    45476
    49872    32309    32372    32335    32335    45470    45651    32335    45468
    49873    32318    32344    32361    32361    45532    45706    32361    45534
    49874    32311    32351    32337    32337    45482    45663    32337    45481
    49875    32305    32353    32328    32328    45440    45607    32328    45438
    49876    32318    32360    32344    32344    45533    45705    32344    45532
    49877    32322    32375    32365    32365    45567    45807    32365    45565
! ... 372 like lines cut
secnum,1    ! reset the section ID to default
keyo,cid,8,2               ! auto create asymmetric contact (from Program Controlled setting)
keyo,cid,10,0              ! adjust contact stiffness each NR iteration (from Program Controlled setting)
keyo,cid,12,0              ! standard contact
keyo,cid,18,1              ! small sliding turned on by application
keyo,cid,2,0               ! augmented Lagrange (from Program Controlled setting)
keyo,cid,4,0               ! on Gauss point (from Program Controlled setting)
keyo,cid,9,0               ! use real geometry with stepped effects
keyo,cid,7,0               ! No Prediction
rmod,tid,3,1.       ! FKN
rmod,tid,5,0.       ! ICONT
rmod,tid,6,0.       ! PINB
rmod,tid,10,0.      ! CNOF
rmod,tid,12,0.      ! FKT
rmod,tid,36,56      ! WB DSID
rmod,cid,3,1.       ! FKN
rmod,cid,5,0.       ! ICONT
rmod,cid,6,0.       ! PINB
rmod,cid,10,0.      ! CNOF
rmod,cid,12,0.      ! FKT
rmod,cid,36,56      ! WB DSID
nsel,all
esel,all
/wb,contact,end            !  done creating contacts
/golist
/wb,load,start             !  starting to send loads
/com,*********** Fixed Supports ***********
CMBLOCK,_FIXEDSU,NODE,       86
(8i10)
     30556    -30565     31126    -31133     32504    -32528     34189     34191
    -34193     34196     34198    -34200     34203     34207     34208     34210
     34213     34214     34216     34219     34220     34222     34225    -34227
     34231     34232     34234     34237     34238     34240     34243     34244
     34250     38229     38232     38233     38235     38238     38239     38241
     38244     38245     38248     38252     38253     38255     38258    -38260
     38263     38264     38266     38269     38270     38274     46569    -46574
     46579    -46581     46585    -46589     46595    -46597     46601    -46605
     46610    -46614     46618    -46622     46627    -46629     46634    -46636
     46640    -46642     46646    -46648     46654    -46656     46659    -46661
     46666     46671     46675     46681     46698     46703
cmsel,s,_FIXEDSU
d,all,all
nsel,all
/com,*********** Define Force Using Surface Effect Elements ***********
local,12,0,0.,0.,0.,0.,0.,0.
csys,0
et,20,154
MAT,20 $ TYPE,20 $ REAL,20 $ SECNUM,20 $ ESYS,12    ! ELEMNODES = 8
eblock,21,COMPACT,,66
(21i9)
    50249    13944    14878    14894    14894    18615    24355    14894    18616
    50250    14881    14893    14884    14884    24382    24403    14884    24380
    50251    13591    14876    14895    14895    16136    24340    14895    16137
    50252    14881    14882    14893    14893    24379    24391    14893    24382
    50253    13591    13592    14876    14876    16133    16142    14876    16136
    50254    13942    13943    14885    14885    18601    18609    14885    18604
    50255    13584    14876    13592    13592    16091    16142    13592    16086
    50256    13940    14883    14898    14898    18590    24398    14898    18591
    50257    13586    14899    14886    14886    16106    24417    14886    16105
    50258    13939    14898    14887    14887    18585    24423    14887    18584
    50259    14878    14889    14891    14891    24353    24431    14891    24354
    50260    13938    14887    14888    14888    18578    24421    14888    18579
    50261    13589    14884    14893    14893    16124    24403    14893    16125
    50262    14886    14899    14897    14897    24417    24459    14897    24416
    50263    14875    14890    14877    14877    24332    24348    14877    24328
    50264    14875    14877    14880    14880    24328    24345    14880    24330
    50265    13941    13942    14892    14892    18594    18605    14892    18599
    50266    13939    13940    14898    14898    18581    18591    14898    18585
    50267    14877    14890    14888    14888    24348    24427    14888    24347
    50268    14887    14898    14896    14896    24423    24454    14896    24422
! ... 47 like lines cut
secnum,1    ! reset the section ID to default
esel,s,type,,20
keyop,20,2,1        ! Apply load in local coordinate system
keyop,20,7,1        ! Use original area so load is constant in large deformation
esel,all
/gst,on,on
fini
*get,_numnode,node,0,count
*get,_numelem,elem,0,count
*get, _MAXELEMNUM, elem, 0, NUM, MAX
*get, _MAXNODENUM, node, 0, NUM, MAX
*get, _MAXELEMTYPE, etyp, 0, NUM, MAX
*get, _MAXREALCONST, rcon, 0, NUM, MAX
/go
/wb,load,end               !  done creating loads
/com,--- Number of total nodes = %_numnode%
/com,--- Number of contact elements = 7330
/com,--- Number of spring elements = 0
/com,--- Number of bearing elements = 0
/com,--- Number of solid elements = 33988
/com,--- Number of condensed parts = 0
/com,--- Number of total elements = %_numelem%
*get,_wallbsol,active,,time,wall
/com,****************************************************************************
/com,*************************    SOLUTION       ********************************
/com,****************************************************************************
/solu
antype,0                   ! static analysis
_thickRatio=0.8     ! Ratio of thick parts in the model
eqsl,pcg,1e-8,,,,,,1
cntr,print,1               ! print out contact info and also make no initial contact an error
dmpoption,emat,no             ! Don't combine emat file for DANSYS
dmpoption,esav,no             ! Don't combine esav file for DANSYS
nldiag,cont,iter           ! print out contact info each equilibrium iteration
rescontrol,define,last,last,,dele	   ! Program Controlled
/com,****************************************************
/com,******************* SOLVE FOR LS 1 OF 1 ****************
esel,s,type,,20
nsle
sfe,all,1,pres,1,-14.1475420603595
sfe,all,2,pres,1,0.
sfe,all,3,pres,1,0.
nsel,all
esel,all
/nopr
/gopr
autots,on                  ! Workbench Program Controlled automatic time stepping
nsub,1,10,1                ! due to presence of general nonlinear
time,1.
outres,erase
outres,all,none
outres,nsol,all,
outres,rsol,all
outres,eangl,all
outres,etmp,all
outres,veng,all
outres,strs,all,
outres,epel,all,
outres,eppl,all,
outres,cont,all,
! *********** WB SOLVE COMMAND ***********
! check interactive state
*get,ANSINTER_,active,,int
*if,ANSINTER_,ne,0,then
/eof
*endif
solve
/com *************** Write FE CONNECTORS ********* 
CEWRITE,file,ce,,INTE
/com,****************************************************
/com,*************** FINISHED SOLVE FOR LS 1 *************
fini
*get,_wallasol,active,,time,wall
/nopr
*get,_numnode,node,0,count
*get,_numelem,elem,0,count
*get, _MAXELEMNUM, elem, 0, NUM, MAX
*get, _MAXNODENUM, node, 0, NUM, MAX,,,INTERNAL
*get, _MAXELEMTYPE, etyp, 0, NUM, MAX
*get, _MAXREALCONST, rcon, 0, NUM, MAX
*get,_NSOLTHREADS,active,0,ntfs
*get,_NSOLPROCESSES,active,0,npfs
/gopr
*get,_PCGITER,active,,solu,cgiter
/post1
xmlo,ENCODING,ISO-8859-1
xmlo,parm
/xml,parm,xml
fini
/gopr
*get,_walldone,active,,time,wall
_preptime=(_wallbsol-_wallstrt)*3600
_solvtime=(_wallasol-_wallbsol)*3600
_posttime=(_walldone-_wallasol)*3600
_totaltim=(_walldone-_wallstrt)*3600
*get,_dlbratio,active,0,solu,dlbr
*get,_combtime,active,0,solu,comb
*get,_ssmode,active,0,solu,ssmm
*get,_ndofs,active,0,solu,ndof
*get,_sol_end_time,active,0,set,time
*if,_sol_end_time,eq,1.000000,then
/fclean				!clean distributed files
*endif
/com,--- Total number of nodes = %_numnode%
/com,--- Total number of elements = %_numelem%
/com,--- Element load balance ratio = %_dlbratio%
/com,--- Time to combine distributed files = %_combtime%
/com,--- Sparse memory mode = %_ssmode%
/com,--- Number of DOF = %_ndofs%
/wb,file,end               ! done with WB generated input
