/batch
/config,noeldb,1     ! force off writing results to database
*get,_wallstrt,active,,time,wall
! ANSYS input file written by Workbench version 2026 R1
! File used for geometry attach: F:\CoME\Forth Semester\Practice FEM\Git_upload\05_Contact_Analysis\1_klevis_pin_analysis\ansys\project_files\complete assembly_klevis_pin_files\dp0\Geom\DM\Geom.agdb
/title,complete assembly_klevis_pin--Static Structural (B5)
! ****** Begin Custom Load Command Snippet ******
/COM, ACT Extensions:
/COM,     LSDYNA, 2026.1
/COM,     5f463412-bd3e-484b-87e7-cbc0a665e474, wbex
/COM,     ANSYSMotion, 2026.1
/COM,     20180725-3f81-49eb-9f31-41364844c769, wbex
! ****** End   Custom Load Command Snippet ******
*DIM,_wb_ProjectScratch_dir,string,248
_wb_ProjectScratch_dir(1) = 'F:\CoME\Forth Semester\Practice FEM\Git_upload\05_Contact_Analysis\1_klevis_pin_analysis\ansys\project_files\_ProjectScratch\ScrFCDC\'
*DIM,_wb_SolverFiles_dir,string,248
_wb_SolverFiles_dir(1) = 'F:\CoME\Forth Semester\Practice FEM\Git_upload\05_Contact_Analysis\1_klevis_pin_analysis\ansys\project_files\complete assembly_klevis_pin_files\dp0\SYS\MECH\'
*DIM,_wb_userfiles_dir,string,248
_wb_userfiles_dir(1) = 'F:\CoME\Forth Semester\Practice FEM\Git_upload\05_Contact_Analysis\1_klevis_pin_analysis\ansys\project_files\complete assembly_klevis_pin_files\user_files\'
/com,--- Data in consistent NMM units. See Solving Units in the help system for more information.
/units,MPA
/nopr
/wb,file,start              !  signify a WB generated input file
/prep7
! Turn off shape checking because checks already performed inside WB mesher.
! See help system for more information.
SHPP,OFF,,NOWARN
/nolist
etcon,set             ! allow ANSYS to choose best KEYOP's for 180x elements, resets any applicable keyopt to MAPDL defaults
/com,*********** Send User Defined Coordinate System(s) ***********
csys,0
/com,*********** Nodes for the whole assembly ***********
nblock,3,,39089
(1i9,3e20.9e3)
        1     2.074339688E+02    -1.396708371E-03     5.000000000E+00
        2     2.074339688E+02    -1.396708371E-03     1.000000000E+01
        3     2.074339688E+02    -1.396708371E-03     1.500000000E+01
        4     2.074339688E+02    -1.396708371E-03     2.000000000E+01
        5     2.074339688E+02    -1.396708371E-03     2.500000000E+01
        6     2.074339688E+02    -1.396708371E-03     3.000000000E+01
        7     2.074339688E+02    -1.396708371E-03     3.500000000E+01
        8     2.074339688E+02    -1.396708371E-03     4.000000000E+01
        9     2.074339688E+02    -1.396708371E-03     4.500000000E+01
       10     2.074339688E+02    -1.396708371E-03     5.000000000E+01
       11     2.074339688E+02    -1.396708371E-03     5.500000000E+01
       12     2.074339688E+02    -1.396708371E-03     6.000000000E+01
       13     2.074339688E+02    -1.396708371E-03     6.500000000E+01
       14     2.074339688E+02    -1.396708371E-03     7.000000000E+01
       15     2.074339688E+02    -1.396708371E-03     7.500000000E+01
       16     2.099967973E+02    -2.564775041E+00     5.000000000E+00
       17     2.099967973E+02    -2.564775041E+00     1.000000000E+01
       18     2.099967973E+02    -2.564775041E+00     1.500000000E+01
       19     2.099967973E+02    -2.564775041E+00     2.000000000E+01
       20     2.099967973E+02    -2.564775041E+00     2.500000000E+01
! ... 35517 like lines cut
/wb,elem,start            !  set before creation of elements
/com,*********** Elements for Body 1 'pin' ***********
et,1,186
keyo,1,2,1          ! set full integration on SOLID186
MAT,1 $ TYPE,1 $ REAL,1 $ SECNUM,1 $ ESYS,0    ! ELEMNODES = 20
eblock,21,COMPACT,,336
(21i9)
        1        1      121      136      151      256      248      247      246      480      921      967      481     1293     1290     1287     1288      482      922      968     1014
        2        1      151      136      121        2      152      137      122      481      967      921      480      487      971      925      486      477     1012      966      920
        3        2      152      137      122        3      153      138      123      487      971      925      486      492      974      928      491      483     1016      970      924
        4        3      153      138      123        4      154      139      124      492      974      928      491      497      977      931      496      488     1019      973      927
        5        4      154      139      124        5      155      140      125      497      977      931      496      502      980      934      501      493     1022      976      930
        6        5      155      140      125        6      156      141      126      502      980      934      501      507      983      937      506      498     1025      979      933
        7        6      156      141      126        7      157      142      127      507      983      937      506      512      986      940      511      503     1028      982      936
        8        7      157      142      127        8      158      143      128      512      986      940      511      517      989      943      516      508     1031      985      939
        9        8      158      143      128        9      159      144      129      517      989      943      516      522      992      946      521      513     1034      988      942
       10        9      159      144      129       10      160      145      130      522      992      946      521      527      995      949      526      518     1037      991      945
       11       10      160      145      130       11      161      146      131      527      995      949      526      532      998      952      531      523     1040      994      948
       12       11      161      146      131       12      162      147      132      532      998      952      531      537     1001      955      536      528     1043      997      951
       13       12      162      147      132       13      163      148      133      537     1001      955      536      542     1004      958      541      533     1046     1000      954
       14       13      163      148      133       14      164      149      134      542     1004      958      541      547     1007      961      546      538     1049     1003      957
       15       14      164      149      134       15      165      150      135      547     1007      961      546      551     1009      963      550      543     1052     1006      960
       16       15      165      150      135      257      267      266      265      551     1009      963      550     1312     1332     1330     1311      552     1056     1010      964
       17        1       16      106      121      256      255      249      248      478      556      875      480     1308     1296     1292     1293      482      557      876      922
       18        1      121      106       16        2      122      107       17      480      875      556      478      486      879      561      484      477      920      874      553
       19        2      122      107       17        3      123      108       18      486      879      561      484      491      882      565      489      483      924      878      558
       20        3      123      108       18        4      124      109       19      491      882      565      489      496      885      569      494      488      927      881      562
! ... 317 like lines cut
secnum,1    ! reset the section ID to default
! Material Id = {243B22CF-70EA-41CB-8FBD-782DCD1AA89B}
/com,*********** Elements for Body 2 'u shape' ***********
et,2,187
MAT,2 $ TYPE,2 $ REAL,2 $ SECNUM,2 $ ESYS,0    ! ELEMNODES = 10
eblock,21,COMPACT,,7196
(21i9)
      337     2091     2846     3428     3427     5798    10497     5800     5799    10496    13200
      338     2846     3115     3428     3427    10493    12017    10497    10496    12016    13200
      339     2841     3428     2846     3115    10470    10497    10466    10468    12017    10493
      340     2123     2841     3428     2846     6027    10470     6029     6028    10466    10497
      341     2091     2846     2123     3428     5798     6028     5794     5800    10497     6029
      342     2091     3428     2149     3427     5800     6162     5797     5799    13200     6161
      343     2793     3428     2841     3115    10191    10470    10187    10190    12017    10468
      344     2123     2793     3428     2841     6026    10191     6029     6027    10187    10470
      345     2123     2161     3428     2793     6025     6202     6029     6026     6201    10191
      346     2161     2789     3428     2793     6200    10169     6202     6201    10162    10191
      347     2091     2123     2149     3428     5794     6024     5797     5800     6029     6162
      348     2149     3428     2789     3427     6162    10169     6160     6161    13200    10168
      349     2789     3428     2793     3115    10169    10191    10162    10166    12017    10190
      350     2149     3428     2161     2789     6162     6202     6159     6160    10169     6200
      351     2123     2161     2149     3428     6025     6159     6024     6029     6202     6162
      352     2148     2846     3427     2861     6156    10496     6158     6157    10491    10581
      353     2091     3427     2148     2846     5799     6158     5796     5798    10496     6156
      354     2846     3427     2861     3115    10496    10581    10491    10493    12016    10577
      355     2132     2148     3427     2861     6076     6158     6084     6081     6157    10581
      356     2091     2148     3427     2132     5796     6158     5799     5795     6076     6084
! ... 7177 like lines cut
secnum,1    ! reset the section ID to default
! Material Id = {F4FC650A-230B-436A-A5B8-955A52075CA3}
/com,*********** Elements for Body 3 'york' ***********
et,3,187
MAT,3 $ TYPE,3 $ REAL,3 $ SECNUM,3 $ ESYS,0    ! ELEMNODES = 10
eblock,21,COMPACT,,13863
(21i9)
     7533    14484    15517    16515    16042    24957    31443    24959    24958    31439    34219
     7534    14415    16515    14484    15517    24445    24959    24437    24443    31443    24957
     7535    15173    16515    15517    16474    29313    31443    29305    29312    35531    31442
     7536    14415    15173    16515    15517    24442    29313    24445    24443    29305    31443
     7537    15517    16515    16042    16474    31443    34219    31439    31442    35531    34217
     7538    14415    14584    14484    16515    24440    24954    24437    24445    25407    24959
     7539    14388    14484    16515    16042    24190    24959    24199    24197    24958    34219
     7540    14388    14584    16515    14484    24194    25407    24199    24190    24954    24959
     7541    14388    16515    15604    16042    24199    32022    24196    24197    34219    32016
     7542    14388    16515    14584    15604    24199    25407    24194    24196    32022    25406
     7543    15604    16042    16515    16474    32016    34219    32022    32021    34217    35531
     7544    14457    14584    16515    15604    24774    25407    24778    24776    25406    32022
     7545    14457    16515    15173    15604    24778    29313    24775    24776    32022    29306
     7546    15071    16514    16365    16501    28474    35416    28472    28473    35535    35415
     7547    15071    16514    16104    16365    28474    34483    28471    28472    35416    34481
     7548    15690    16365    16514    16501    32561    35416    32564    32563    35415    35535
     7549    15690    16104    16514    16365    32560    34483    32564    32561    34481    35416
     7550    14882    16514    14909    16501    27368    27461    27365    27367    35535    27460
     7551    14882    15690    16514    16501    27366    32564    27368    27367    32563    35535
     7552    14692    16514    14882    15690    26261    27368    26253    26259    32564    27366
! ... 13844 like lines cut
secnum,1    ! reset the section ID to default
! Material Id = {8ACB1CC9-E1D6-40FF-853E-A610EBF260AD}
/wb,elem,end               !  done creating elements
toffst,273.15,      ! Temperature offset from absolute zero
/com,*********** Set Reference Temperature ***********
tref,22.
/wb,mat,start              !  starting to send materials
/com,*********** Send Materials ***********
Temperature = 'TEMP' ! Temperature
MP,DENS,1,7.85e-09,	! tonne mm^-3
MP,ALPX,1,1.2e-05,	! C^-1
MP,C,1,434000000,	! mm^2 s^-2 C^-1
MP,KXX,1,60.5,	! tonne mm s^-3 C^-1
MP,RSVX,1,0.00017,	! ohm mm
MP,EX,1,200000,	! tonne s^-2 mm^-1
MP,NUXY,1,0.3,
MP,MURX,1,10000,
MP,UVID,1,708987b9-7516-433e-b807-fb6ee5843493
MP,UMID,1,59002a79-71c2-428e-906b-55d7dbee100e

Temperature = 'TEMP' ! Temperature
MP,DENS,2,7.85e-09,	! tonne mm^-3
MP,ALPX,2,1.2e-05,	! C^-1
MP,C,2,434000000,	! mm^2 s^-2 C^-1
MP,KXX,2,60.5,	! tonne mm s^-3 C^-1
MP,RSVX,2,0.00017,	! ohm mm
MP,EX,2,200000,	! tonne s^-2 mm^-1
MP,NUXY,2,0.3,
MP,MURX,2,10000,
MP,UVID,2,708987b9-7516-433e-b807-fb6ee5843493
MP,UMID,2,59002a79-71c2-428e-906b-55d7dbee100e

Temperature = 'TEMP' ! Temperature
MP,DENS,3,7.85e-09,	! tonne mm^-3
MP,ALPX,3,1.2e-05,	! C^-1
MP,C,3,434000000,	! mm^2 s^-2 C^-1
MP,KXX,3,60.5,	! tonne mm s^-3 C^-1
MP,RSVX,3,0.00017,	! ohm mm
MP,EX,3,200000,	! tonne s^-2 mm^-1
MP,NUXY,3,0.3,
MP,MURX,3,10000,
MP,UVID,3,708987b9-7516-433e-b807-fb6ee5843493
MP,UMID,3,59002a79-71c2-428e-906b-55d7dbee100e

/wb,mat,end                !  done sending materials
!************************* Model Summary ********************
! pin,	Structural Steel,	matid,	1
! u shape,	Structural Steel,	matid,	2
! york,	Structural Steel,	matid,	3
!************************* End Model Summary ********************
! get the diagonal of the bounding box. Needed later for other things
*get,_xmin,node,,mnloc,x
*get,_ymin,node,,mnloc,y
*get,_zmin,node,,mnloc,z
*get,_xmax,node,,mxloc,x
*get,_ymax,node,,mxloc,y
*get,_zmax,node,,mxloc,z
_ASMDIAG=(_xmax-_xmin)*(_xmax-_xmin)+(_ymax-_ymin)*(_ymax-_ymin)+(_zmax-_zmin)*(_zmax-_zmin)
_ASMDIAG=SQRT(_ASMDIAG)
/wb,contact,start          !  starting to send contact
/com,*********** Create Contact "No Separation - pin To u shape" ***********
/com,            Real Constant Set For Above Contact Is 5 & 4 
*set,tid,5
*set,cid,4
r,tid
r,cid
et,tid,170
et,cid,174
MAT,5 $ TYPE,5 $ REAL,5 $ SECNUM,5 $ ESYS,0    ! ELEMNODES = 8
eblock,21,COMPACT,,72
(21i9)
    27092      340      329      456      457     1473     1474     1722     1497
    27093      351      340      457      458     1496     1497     1723     1520
    27094      362      351      458      459     1519     1520     1724     1543
    27095      373      362      459      460     1542     1543     1725     1566
    27096      384      373      460      461     1565     1566     1726     1589
    27097      395      384      461      462     1588     1589     1727     1612
    27098      340      341      330      329     1495     1476     1472     1473
    27099      351      352      341      340     1518     1499     1495     1496
    27100      362      363      352      351     1541     1522     1518     1519
    27101      373      374      363      362     1564     1545     1541     1542
    27102      384      385      374      373     1587     1568     1564     1565
    27103      395      396      385      384     1610     1591     1587     1588
    27104      341      342      331      330     1498     1478     1475     1476
    27105      352      353      342      341     1521     1501     1498     1499
    27106      363      364      353      352     1544     1524     1521     1522
    27107      374      375      364      363     1567     1547     1544     1545
    27108      385      386      375      374     1590     1570     1567     1568
    27109      396      397      386      385     1613     1593     1590     1591
    27110      342      343      332      331     1500     1480     1477     1478
    27111      353      354      343      342     1523     1503     1500     1501
! ... 53 like lines cut
secnum,1    ! reset the section ID to default
MAT,4 $ TYPE,4 $ REAL,4 $ SECNUM,4 $ ESYS,0    ! ELEMNODES = 8
eblock,21,COMPACT,,72
(21i9)
    27164      340      329      456      457     1473     1474     1722     1497
    27165      351      340      457      458     1496     1497     1723     1520
    27166      362      351      458      459     1519     1520     1724     1543
    27167      373      362      459      460     1542     1543     1725     1566
    27168      384      373      460      461     1565     1566     1726     1589
    27169      395      384      461      462     1588     1589     1727     1612
    27170      340      341      330      329     1495     1476     1472     1473
    27171      351      352      341      340     1518     1499     1495     1496
    27172      362      363      352      351     1541     1522     1518     1519
    27173      373      374      363      362     1564     1545     1541     1542
    27174      384      385      374      373     1587     1568     1564     1565
    27175      395      396      385      384     1610     1591     1587     1588
    27176      341      342      331      330     1498     1478     1475     1476
    27177      352      353      342      341     1521     1501     1498     1499
    27178      363      364      353      352     1544     1524     1521     1522
    27179      374      375      364      363     1567     1547     1544     1545
    27180      385      386      375      374     1590     1570     1567     1568
    27181      396      397      386      385     1613     1593     1590     1591
    27182      342      343      332      331     1500     1480     1477     1478
    27183      353      354      343      342     1523     1503     1500     1501
! ... 53 like lines cut
secnum,1    ! reset the section ID to default
MAT,4 $ TYPE,4 $ REAL,5 $ SECNUM,4 $ ESYS,0    ! ELEMNODES = 8
eblock,21,COMPACT,,130
(21i9)
    27236     1930     1929     2040     2040     4713     4715     2040     4721
    27237     1925     1924     2039     2039     4677     4678     2039     4685
    27238     1781     1780     2038     2038     3671     3673     2038     3679
    27239     1776     1775     2037     2037     3639     3640     2037     3646
    27240     1920     1919     2036     2036     4642     4643     2036     4649
    27241     1771     1770     2035     2035     3607     3609     2035     3614
    27242     1929     1928     2034     2034     4704     4705     2034     4714
    27243     1780     1779     2033     2033     3665     3666     2033     3672
    27244     1922     1921     2030     2030     4656     4657     2030     4664
    27245     1773     1772     2029     2029     3620     3621     2029     3627
    27246     1769     1781     2028     2028     3600     3678     2028     3602
    27247     1770     1769     2027     2027     3599     3601     2027     3608
    27248     1927     1926     2032     2032     4691     4692     2032     4699
    27249     1778     1777     2031     2031     3652     3653     2031     3660
    27250     1775     1774     2041     2041     3632     3633     2041     3641
    27251     1919     1918     2042     2042     4635     4637     2042     4644
    27252     1924     1923     2043     2043     4670     4671     2043     4679
    27253     1774     1773     2044     2044     3626     3628     2044     3634
    27254     1923     1922     2045     2045     4663     4665     2045     4672
    27255     1779     1778     2046     2046     3659     3661     2046     3667
! ... 111 like lines cut
secnum,1    ! reset the section ID to default
MAT,5 $ TYPE,5 $ REAL,4 $ SECNUM,5 $ ESYS,0    ! ELEMNODES = 8
eblock,21,COMPACT,,130
(21i9)
    27366     1930     1929     2040     2040     4713     4715     2040     4721
    27367     1925     1924     2039     2039     4677     4678     2039     4685
    27368     1781     1780     2038     2038     3671     3673     2038     3679
    27369     1776     1775     2037     2037     3639     3640     2037     3646
    27370     1920     1919     2036     2036     4642     4643     2036     4649
    27371     1771     1770     2035     2035     3607     3609     2035     3614
    27372     1929     1928     2034     2034     4704     4705     2034     4714
    27373     1780     1779     2033     2033     3665     3666     2033     3672
    27374     1922     1921     2030     2030     4656     4657     2030     4664
    27375     1773     1772     2029     2029     3620     3621     2029     3627
    27376     1769     1781     2028     2028     3600     3678     2028     3602
    27377     1770     1769     2027     2027     3599     3601     2027     3608
    27378     1927     1926     2032     2032     4691     4692     2032     4699
    27379     1778     1777     2031     2031     3652     3653     2031     3660
    27380     1775     1774     2041     2041     3632     3633     2041     3641
    27381     1919     1918     2042     2042     4635     4637     2042     4644
    27382     1924     1923     2043     2043     4670     4671     2043     4679
    27383     1774     1773     2044     2044     3626     3628     2044     3634
    27384     1923     1922     2045     2045     4663     4665     2045     4672
    27385     1779     1778     2046     2046     3659     3661     2046     3667
! ... 111 like lines cut
secnum,1    ! reset the section ID to default
keyo,cid,8,2               ! auto create asymmetric contact (from Program Controlled setting)
keyo,cid,10,0              ! adjust contact stiffness each NR iteration (from Program Controlled setting)
keyo,cid,12,4              ! no separation always
keyo,cid,18,1              ! small sliding turned on by application
keyo,cid,2,0               ! augmented Lagrange (from Program Controlled setting)
keyo,cid,4,0               ! on Gauss point (from Program Controlled setting)
keyo,cid,9,1               ! ignore initial gaps/penetration
keyo,cid,7,0               ! No Prediction
rmod,tid,3,10.      ! FKN
rmod,tid,5,0.       ! ICONT
rmod,tid,6,0.       ! PINB
rmod,tid,10,0.      ! CNOF
rmod,tid,12,0.      ! FKT
rmod,tid,36,32      ! WB DSID
rmod,cid,3,10.      ! FKN
rmod,cid,5,0.       ! ICONT
rmod,cid,6,0.       ! PINB
rmod,cid,10,0.      ! CNOF
rmod,cid,12,0.      ! FKT
rmod,cid,36,32      ! WB DSID
/com,*********** Create Contact "No Separation - pin To york" ***********
/com,            Real Constant Set For Above Contact Is 7 & 6 
*set,tid,7
*set,cid,6
r,tid
r,cid
et,tid,170
et,cid,174
MAT,7 $ TYPE,7 $ REAL,7 $ SECNUM,7 $ ESYS,0    ! ELEMNODES = 8
eblock,21,COMPACT,,60
(21i9)
    27496      384      373      460      461     1565     1566     1726     1589
    27497      395      384      461      462     1588     1589     1727     1612
    27498      406      395      462      463     1611     1612     1728     1635
    27499      417      406      463      464     1634     1635     1729     1658
    27500      428      417      464      465     1657     1658     1730     1681
    27501      384      385      374      373     1587     1568     1564     1565
    27502      395      396      385      384     1610     1591     1587     1588
    27503      406      407      396      395     1633     1614     1610     1611
    27504      417      418      407      406     1656     1637     1633     1634
    27505      428      429      418      417     1679     1660     1656     1657
    27506      385      386      375      374     1590     1570     1567     1568
    27507      396      397      386      385     1613     1593     1590     1591
    27508      407      408      397      396     1636     1616     1613     1614
    27509      418      419      408      407     1659     1639     1636     1637
    27510      429      430      419      418     1682     1662     1659     1660
    27511      386      387      376      375     1592     1572     1569     1570
    27512      397      398      387      386     1615     1595     1592     1593
    27513      408      409      398      397     1638     1618     1615     1616
    27514      419      420      409      408     1661     1641     1638     1639
    27515      430      431      420      419     1684     1664     1661     1662
! ... 41 like lines cut
secnum,1    ! reset the section ID to default
MAT,6 $ TYPE,6 $ REAL,6 $ SECNUM,6 $ ESYS,0    ! ELEMNODES = 8
eblock,21,COMPACT,,60
(21i9)
    27556      384      373      460      461     1565     1566     1726     1589
    27557      395      384      461      462     1588     1589     1727     1612
    27558      406      395      462      463     1611     1612     1728     1635
    27559      417      406      463      464     1634     1635     1729     1658
    27560      428      417      464      465     1657     1658     1730     1681
    27561      384      385      374      373     1587     1568     1564     1565
    27562      395      396      385      384     1610     1591     1587     1588
    27563      406      407      396      395     1633     1614     1610     1611
    27564      417      418      407      406     1656     1637     1633     1634
    27565      428      429      418      417     1679     1660     1656     1657
    27566      385      386      375      374     1590     1570     1567     1568
    27567      396      397      386      385     1613     1593     1590     1591
    27568      407      408      397      396     1636     1616     1613     1614
    27569      418      419      408      407     1659     1639     1636     1637
    27570      429      430      419      418     1682     1662     1659     1660
    27571      386      387      376      375     1592     1572     1569     1570
    27572      397      398      387      386     1615     1595     1592     1593
    27573      408      409      398      397     1638     1618     1615     1616
    27574      419      420      409      408     1661     1641     1638     1639
    27575      430      431      420      419     1684     1664     1661     1662
! ... 41 like lines cut
secnum,1    ! reset the section ID to default
MAT,6 $ TYPE,6 $ REAL,7 $ SECNUM,6 $ ESYS,0    ! ELEMNODES = 8
eblock,21,COMPACT,,78
(21i9)
    27616    13353    13352    13701    13701    17550    17551    13701    17558
    27617    13279    13278    13700    13700    17084    17086    13700    17092
    27618    13274    13273    13699    13699    17051    17052    13699    17059
    27619    13348    13347    13698    13698    17518    17520    13698    17525
    27620    13269    13268    13697    13697    17017    17019    13697    17024
    27621    13357    13356    13696    13696    17577    17578    13696    17584
    27622    13278    13277    13695    13695    17078    17079    13695    17085
    27623    13347    13346    13694    13694    17511    17513    13694    17519
    27624    13350    13349    13691    13691    17531    17532    13691    17539
    27625    13271    13270    13690    13690    17029    17030    13690    17037
    27626    13267    13279    13689    13689    17010    17091    13689    17012
    27627    13268    13267    13688    13688    17009    17011    13688    17018
    27628    13355    13354    13693    13693    17564    17565    13693    17572
    27629    13276    13275    13692    13692    17064    17065    13692    17072
    27630    13358    13357    13702    13702    17583    17585    13702    17590
    27631    13273    13272    13703    13703    17044    17045    13703    17053
    27632    13352    13351    13704    13704    17544    17545    13704    17552
    27633    13272    13271    13705    13705    17036    17038    13705    17046
    27634    13351    13350    13706    13706    17538    17540    13706    17546
    27635    13277    13276    13707    13707    17071    17073    13707    17080
! ... 59 like lines cut
secnum,1    ! reset the section ID to default
MAT,7 $ TYPE,7 $ REAL,6 $ SECNUM,7 $ ESYS,0    ! ELEMNODES = 8
eblock,21,COMPACT,,78
(21i9)
    27694    13353    13352    13701    13701    17550    17551    13701    17558
    27695    13279    13278    13700    13700    17084    17086    13700    17092
    27696    13274    13273    13699    13699    17051    17052    13699    17059
    27697    13348    13347    13698    13698    17518    17520    13698    17525
    27698    13269    13268    13697    13697    17017    17019    13697    17024
    27699    13357    13356    13696    13696    17577    17578    13696    17584
    27700    13278    13277    13695    13695    17078    17079    13695    17085
    27701    13347    13346    13694    13694    17511    17513    13694    17519
    27702    13350    13349    13691    13691    17531    17532    13691    17539
    27703    13271    13270    13690    13690    17029    17030    13690    17037
    27704    13267    13279    13689    13689    17010    17091    13689    17012
    27705    13268    13267    13688    13688    17009    17011    13688    17018
    27706    13355    13354    13693    13693    17564    17565    13693    17572
    27707    13276    13275    13692    13692    17064    17065    13692    17072
    27708    13358    13357    13702    13702    17583    17585    13702    17590
    27709    13273    13272    13703    13703    17044    17045    13703    17053
    27710    13352    13351    13704    13704    17544    17545    13704    17552
    27711    13272    13271    13705    13705    17036    17038    13705    17046
    27712    13351    13350    13706    13706    17538    17540    13706    17546
    27713    13277    13276    13707    13707    17071    17073    13707    17080
! ... 59 like lines cut
secnum,1    ! reset the section ID to default
keyo,cid,8,2               ! auto create asymmetric contact (from Program Controlled setting)
keyo,cid,10,0              ! adjust contact stiffness each NR iteration (from Program Controlled setting)
keyo,cid,12,4              ! no separation always
keyo,cid,18,1              ! small sliding turned on by application
keyo,cid,2,0               ! augmented Lagrange (from Program Controlled setting)
keyo,cid,4,0               ! on Gauss point (from Program Controlled setting)
keyo,cid,9,1               ! ignore initial gaps/penetration
keyo,cid,7,0               ! No Prediction
rmod,tid,3,10.      ! FKN
rmod,tid,5,0.       ! ICONT
rmod,tid,6,0.       ! PINB
rmod,tid,10,0.      ! CNOF
rmod,tid,12,0.      ! FKT
rmod,tid,36,35      ! WB DSID
rmod,cid,3,10.      ! FKN
rmod,cid,5,0.       ! ICONT
rmod,cid,6,0.       ! PINB
rmod,cid,10,0.      ! CNOF
rmod,cid,12,0.      ! FKT
rmod,cid,36,35      ! WB DSID
/com,*********** Create Contact "No Separation - u shape To york" ***********
/com,            Real Constant Set For Above Contact Is 9 & 8 
*set,tid,9
*set,cid,8
r,tid
r,cid
et,tid,170
et,cid,174
MAT,9 $ TYPE,9 $ REAL,9 $ SECNUM,9 $ ESYS,0    ! ELEMNODES = 8
eblock,21,COMPACT,,287
(21i9)
    27772     2372     2397     2422     2422     7559     7764     2422     7560
    27773     2366     2460     2452     2452     7505     8071     2452     7504
    27774     2360     2392     2442     2442     7439     7734     2442     7441
    27775     2359     2441     2446     2446     7430     8013     2446     7431
    27776     2388     2449     2361     2361     7702     7453     2361     7450
    27777     2362     2403     2385     2385     7461     7673     2385     7459
    27778     2400     2462     2439     2439     7787     8003     2439     7786
    27779     2367     2400     2439     2439     7510     7786     2439     7512
    27780     2374     2401     2456     2456     7578     7793     2456     7580
    27781     2383     2454     2428     2428     7657     7952     2428     7656
    27782     2358     2468     2371     2371     7423     7554     2371     7419
    27783     2375     2404     2425     2425     7588     7813     2425     7590
    27784     2368     2401     2384     2384     7519     7663     2384     7518
    27785     2358     2405     2370     2370     7421     7541     2370     7418
    27786     2382     2398     2429     2429     7646     7773     2429     7648
    27787     2411     2477     2451     2451     7854     8066     2451     7853
    27788     2366     2408     2436     2436     7501     7835     2436     7503
    27789     2364     2380     2431     2431     7479     7630     2431     7483
    27790     1786     2377     1787     1787     3712     3718     1787     3709
    27791     2382     2429     2443     2443     7648     7958     2443     7649
! ... 268 like lines cut
secnum,1    ! reset the section ID to default
MAT,8 $ TYPE,8 $ REAL,8 $ SECNUM,8 $ ESYS,0    ! ELEMNODES = 8
eblock,21,COMPACT,,287
(21i9)
    28059     2372     2397     2422     2422     7559     7764     2422     7560
    28060     2366     2460     2452     2452     7505     8071     2452     7504
    28061     2360     2392     2442     2442     7439     7734     2442     7441
    28062     2359     2441     2446     2446     7430     8013     2446     7431
    28063     2388     2449     2361     2361     7702     7453     2361     7450
    28064     2362     2403     2385     2385     7461     7673     2385     7459
    28065     2400     2462     2439     2439     7787     8003     2439     7786
    28066     2367     2400     2439     2439     7510     7786     2439     7512
    28067     2374     2401     2456     2456     7578     7793     2456     7580
    28068     2383     2454     2428     2428     7657     7952     2428     7656
    28069     2358     2468     2371     2371     7423     7554     2371     7419
    28070     2375     2404     2425     2425     7588     7813     2425     7590
    28071     2368     2401     2384     2384     7519     7663     2384     7518
    28072     2358     2405     2370     2370     7421     7541     2370     7418
    28073     2382     2398     2429     2429     7646     7773     2429     7648
    28074     2411     2477     2451     2451     7854     8066     2451     7853
    28075     2366     2408     2436     2436     7501     7835     2436     7503
    28076     2364     2380     2431     2431     7479     7630     2431     7483
    28077     1786     2377     1787     1787     3712     3718     1787     3709
    28078     2382     2429     2443     2443     7648     7958     2443     7649
! ... 268 like lines cut
secnum,1    ! reset the section ID to default
MAT,8 $ TYPE,8 $ REAL,9 $ SECNUM,8 $ ESYS,0    ! ELEMNODES = 8
eblock,21,COMPACT,,335
(21i9)
    28346    14035    14074    14151    14151    21921    22258    14151    21927
    28347    14090    14170    14168    14168    22375    22766    14168    22374
    28348    14035    14137    14084    14084    21926    22334    14084    21923
    28349    14076    14125    14104    14104    22273    22459    14104    22272
    28350    14054    14084    14115    14115    22092    22333    14115    22095
    28351    14091    14146    14102    14102    22381    22447    14102    22379
    28352    14077    14124    14095    14095    22283    22407    14095    22282
    28353    14149    14169    14179    14179    22680    22770    14179    22681
    28354    14072    14110    14112    14112    22240    22492    14112    22241
    28355    14038    14051    14074    14074    21951    22067    14074    21952
    28356    14086    14111    14108    14108    22350    22481    14108    22349
    28357    14053    14150    14103    14103    22087    22454    14103    22084
    28358    14035    14082    14128    14128    21922    22318    14128    21925
    28359    14041    14128    14130    14130    21987    22583    14130    21988
    28360    14037    14076    14163    14163    21941    22277    14163    21945
    28361    14080    14144    14117    14117    22304    22525    14117    22302
    28362    14063    14140    14131    14131    22174    22598    14131    22173
    28363    14054    14109    14132    14132    22094    22486    14132    22096
    28364    14062    14139    14155    14155    22162    22636    14155    22164
    28365    14043    14109    14078    14078    22006    22289    14078    22002
! ... 316 like lines cut
secnum,1    ! reset the section ID to default
MAT,9 $ TYPE,9 $ REAL,8 $ SECNUM,9 $ ESYS,0    ! ELEMNODES = 8
eblock,21,COMPACT,,335
(21i9)
    28681    14035    14074    14151    14151    21921    22258    14151    21927
    28682    14090    14170    14168    14168    22375    22766    14168    22374
    28683    14035    14137    14084    14084    21926    22334    14084    21923
    28684    14076    14125    14104    14104    22273    22459    14104    22272
    28685    14054    14084    14115    14115    22092    22333    14115    22095
    28686    14091    14146    14102    14102    22381    22447    14102    22379
    28687    14077    14124    14095    14095    22283    22407    14095    22282
    28688    14149    14169    14179    14179    22680    22770    14179    22681
    28689    14072    14110    14112    14112    22240    22492    14112    22241
    28690    14038    14051    14074    14074    21951    22067    14074    21952
    28691    14086    14111    14108    14108    22350    22481    14108    22349
    28692    14053    14150    14103    14103    22087    22454    14103    22084
    28693    14035    14082    14128    14128    21922    22318    14128    21925
    28694    14041    14128    14130    14130    21987    22583    14130    21988
    28695    14037    14076    14163    14163    21941    22277    14163    21945
    28696    14080    14144    14117    14117    22304    22525    14117    22302
    28697    14063    14140    14131    14131    22174    22598    14131    22173
    28698    14054    14109    14132    14132    22094    22486    14132    22096
    28699    14062    14139    14155    14155    22162    22636    14155    22164
    28700    14043    14109    14078    14078    22006    22289    14078    22002
! ... 316 like lines cut
secnum,1    ! reset the section ID to default
keyo,cid,8,2               ! auto create asymmetric contact (from Program Controlled setting)
keyo,cid,10,0              ! adjust contact stiffness each NR iteration (from Program Controlled setting)
keyo,cid,12,4              ! no separation always
keyo,cid,18,1              ! small sliding turned on by application
keyo,cid,2,0               ! augmented Lagrange (from Program Controlled setting)
keyo,cid,4,0               ! on Gauss point (from Program Controlled setting)
keyo,cid,9,1               ! ignore initial gaps/penetration
keyo,cid,7,0               ! No Prediction
rmod,tid,3,10.      ! FKN
rmod,tid,5,0.       ! ICONT
rmod,tid,6,0.       ! PINB
rmod,tid,10,0.      ! CNOF
rmod,tid,12,0.      ! FKT
rmod,tid,36,38      ! WB DSID
rmod,cid,3,10.      ! FKN
rmod,cid,5,0.       ! ICONT
rmod,cid,6,0.       ! PINB
rmod,cid,10,0.      ! CNOF
rmod,cid,12,0.      ! FKT
rmod,cid,36,38      ! WB DSID
nsel,all
esel,all
/wb,contact,end            !  done creating contacts
/golist
/wb,load,start             !  starting to send loads
/com,*********** Fixed Supports ***********
CMBLOCK,_FIXEDSU,NODE,      103
(8i10)
     13444     13476     13508    -13531     14598    -14622     18189     18190
     18192     18390     18391     18393     18589    -18591     18594    -18596
     18600    -18602     18606    -18608     18612    -18614     18618    -18620
     18625    -18627     18632    -18634     18639     18640     18644     18645
     18649     18650     18653     18654     18658     18659     18661     18662
     18666     18667     18670     18671     18674     18675     18677     18680
     18681     18683     18686     18687     18690     18693     18694     18697
     18700     18701     18703     18706     18707     18709     18712     18713
     18715     18718     18719     18722     18725     18726     18730     18731
     25442    -25445     25449    -25453     25461    -25464     25468    -25472
     25477    -25481     25486    -25488     25494    -25496     25501    -25504
     25508     25509     25516    -25518     25523    -25525     25537     25541
     25542     25547     25548     25552     25553     25558     25562
cmsel,s,_FIXEDSU
d,all,all
nsel,all
/com,*********** Define Pressure Using Surface Effect Elements "Pressure" ***********
et,10,154
MAT,10 $ TYPE,10 $ REAL,10 $ SECNUM,10 $ ESYS,0    ! ELEMNODES = 8
eblock,21,COMPACT,,158
(21i9)
    29016     2546     2558     2590     2590     8589     8680     2590     8590
    29017     2536     2555     2548     2548     8503     8602     2548     8502
    29018     2540     2565     2554     2554     8542     8651     2554     8541
    29019     1863     1864     2538     2538     4242     4253     2538     4246
    29020     2535     2572     2563     2563     8495     8706     2563     8494
    29021     2544     2576     2574     2574     8574     8768     2574     8573
    29022     2552     2563     2560     2560     8636     8690     2560     8634
    29023     2538     2593     2561     2561     8527     8696     2561     8525
    29024     2544     2595     2576     2576     8576     8777     2576     8574
    29025     2545     2577     2572     2572     8582     8758     2572     8581
    29026     2537     2594     2564     2564     8519     8714     2564     8515
    29027     2546     2593     2592     2592     8592     8839     2592     8591
    29028     2536     2574     2556     2556     8506     8664     2556     8504
    29029     2550     2566     2568     2568     8619     8724     2568     8620
    29030     2535     2592     2553     2553     8497     8645     2553     8493
    29031     2534     2562     2573     2573     8484     8701     2573     8485
    29032     2539     2541     2562     2562     8531     8551     2562     8534
    29033     2549     2572     2586     2586     8611     8759     2586     8613
    29034     2547     2580     2594     2594     8597     8797     2594     8599
    29035     2535     2552     2551     2551     8492     8627     2551     8491
! ... 139 like lines cut
secnum,1    ! reset the section ID to default
esel,s,type,,10
keyop,10,7,0        ! Use deformed area for application of load
esel,all
esel,all
/gst,on,on
fini
*get,_numnode,node,0,count
*get,_numelem,elem,0,count
*get, _MAXELEMNUM, elem, 0, NUM, MAX
*get, _MAXNODENUM, node, 0, NUM, MAX
*get, _MAXELEMTYPE, etyp, 0, NUM, MAX
*get, _MAXREALCONST, rcon, 0, NUM, MAX
/go
/wb,load,end               !  done creating loads
/com,--- Number of total nodes = %_numnode%
/com,--- Number of contact elements = 2082
/com,--- Number of spring elements = 0
/com,--- Number of bearing elements = 0
/com,--- Number of solid elements = 21395
/com,--- Number of condensed parts = 0
/com,--- Number of total elements = %_numelem%
*get,_wallbsol,active,,time,wall
/com,****************************************************************************
/com,*************************    SOLUTION       ********************************
/com,****************************************************************************
/solu
antype,0                   ! static analysis
_thickRatio=  1     ! Ratio of thick parts in the model
eqsl,pcg,1e-8,,,,,,1
cntr,print,1               ! print out contact info and also make no initial contact an error
cncheck,dmp		!	Enable program controlled contact splitting for distributed memory parallel run
dmpoption,emat,no             ! Don't combine emat file for DANSYS
dmpoption,esav,no             ! Don't combine esav file for DANSYS
nldiag,cont,iter           ! print out contact info each equilibrium iteration
rescontrol,,none                 ! Do not keep any restart files
/com,****************************************************
/com,******************* SOLVE FOR LS 1 OF 1 ****************
esel,s,type,,10
nsle
sf,all,pres,-1.
nsel,all
esel,all
esel,all
/nopr
/gopr
nsub,1,1,1
time,1.
outres,erase
outres,all,none
outres,nsol,all,
outres,rsol,all
outres,eangl,all
outres,etmp,all
outres,veng,all
outres,strs,all,
outres,epel,all,
outres,eppl,all,
outres,cont,all,
! *********** WB SOLVE COMMAND ***********
! check interactive state
*get,ANSINTER_,active,,int
*if,ANSINTER_,ne,0,then
/eof
*endif
solve
/com *************** Write FE CONNECTORS ********* 
CEWRITE,file,ce,,INTE
/com,****************************************************
/com,*************** FINISHED SOLVE FOR LS 1 *************
fini
*get,_wallasol,active,,time,wall
/nopr
*get,_numnode,node,0,count
*get,_numelem,elem,0,count
*get, _MAXELEMNUM, elem, 0, NUM, MAX
*get, _MAXNODENUM, node, 0, NUM, MAX,,,INTERNAL
*get, _MAXELEMTYPE, etyp, 0, NUM, MAX
*get, _MAXREALCONST, rcon, 0, NUM, MAX
*get,_NSOLTHREADS,active,0,ntfs
*get,_NSOLPROCESSES,active,0,npfs
/gopr
*get,_PCGITER,active,,solu,cgiter
/post1
xmlo,ENCODING,ISO-8859-1
xmlo,parm
/xml,parm,xml
fini
/gopr
*get,_walldone,active,,time,wall
_preptime=(_wallbsol-_wallstrt)*3600
_solvtime=(_wallasol-_wallbsol)*3600
_posttime=(_walldone-_wallasol)*3600
_totaltim=(_walldone-_wallstrt)*3600
*get,_dlbratio,active,0,solu,dlbr
*get,_combtime,active,0,solu,comb
*get,_ssmode,active,0,solu,ssmm
*get,_ndofs,active,0,solu,ndof
*get,_sol_end_time,active,0,set,time
*if,_sol_end_time,eq,1.000000,then
/fclean				!clean distributed files
*endif
/com,--- Total number of nodes = %_numnode%
/com,--- Total number of elements = %_numelem%
/com,--- Element load balance ratio = %_dlbratio%
/com,--- Time to combine distributed files = %_combtime%
/com,--- Sparse memory mode = %_ssmode%
/com,--- Number of DOF = %_ndofs%
/wb,file,end               ! done with WB generated input
