/batch
/config,noeldb,1     ! force off writing results to database
*get,_wallstrt,active,,time,wall
! ANSYS input file written by Workbench version 2026 R1
! File used for geometry attach: F:\CoME\Forth Semester\Practice FEM\Git_upload\04_Plane_Stress_and_Strain_Analysis\1_tunnel_plain_strain\ansys\project_files\tunnel_plain_strain_files\dp0\Geom-2\DM\Geom-2.agdb
/title,tunnel_plain_strain--Static Structural (B5)
! ****** Begin Custom Load Command Snippet ******
/COM, ACT Extensions:
/COM,     LSDYNA, 2026.1
/COM,     5f463412-bd3e-484b-87e7-cbc0a665e474, wbex
/COM,     ANSYSMotion, 2026.1
/COM,     20180725-3f81-49eb-9f31-41364844c769, wbex
! ****** End   Custom Load Command Snippet ******
*DIM,_wb_ProjectScratch_dir,string,248
_wb_ProjectScratch_dir(1) = 'F:\CoME\Forth Semester\Practice FEM\Git_upload\04_Plane_Stress_and_Strain_Analysis\1_tunnel_plain_strain\ansys\project_files\_ProjectScratch\Scr9E0F\'
*DIM,_wb_SolverFiles_dir,string,248
_wb_SolverFiles_dir(1) = 'F:\CoME\Forth Semester\Practice FEM\Git_upload\04_Plane_Stress_and_Strain_Analysis\1_tunnel_plain_strain\ansys\project_files\tunnel_plain_strain_files\dp0\SYS-2\MECH\'
*DIM,_wb_userfiles_dir,string,248
_wb_userfiles_dir(1) = 'F:\CoME\Forth Semester\Practice FEM\Git_upload\04_Plane_Stress_and_Strain_Analysis\1_tunnel_plain_strain\ansys\project_files\tunnel_plain_strain_files\user_files\'
/com,--- Data in consistent NMM units. See Solving Units in the help system for more information.
/units,MPA
/nopr
/wb,file,start              !  signify a WB generated input file
/prep7
! Turn off shape checking because checks already performed inside WB mesher.
! See help system for more information.
SHPP,OFF,,NOWARN
/nolist
etcon,set             ! allow ANSYS to choose best KEYOP's for 180x elements, resets any applicable keyopt to MAPDL defaults
/com,*********** Send User Defined Coordinate System(s) ***********
csys,0
/com,*********** Nodes for the whole assembly ***********
nblock,3,,1832
(1i9,3e20.9e3)
        1     2.400000000E+03     0.000000000E+00     1.500000000E+04
        2     2.400000000E+03     1.000000000E+03     1.500000000E+04
        3     2.000000000E+03     1.000000000E+03     1.500000000E+04
        4     2.000000000E+03     0.000000000E+00     1.500000000E+04
        5     2.400000000E+03     2.400000000E+03     1.500000000E+04
        6     1.765685425E+03     1.765685425E+03     1.500000000E+04
        7     2.000000000E+03     1.200000000E+03     1.500000000E+04
        8     4.000000000E+02     1.200000000E+03     1.500000000E+04
        9     6.343145751E+02     1.765685425E+03     1.500000000E+04
       10     0.000000000E+00     2.400000000E+03     1.500000000E+04
       11     0.000000000E+00     1.000000000E+03     1.500000000E+04
       12     4.000000000E+02     1.000000000E+03     1.500000000E+04
       13     4.000000000E+02     0.000000000E+00     1.500000000E+04
       14     0.000000000E+00     0.000000000E+00     1.500000000E+04
       15     1.598622522E+02     2.362064901E+03     1.500000000E+04
       16     2.806337695E+02     2.364064559E+03     1.500000000E+04
       17     4.020223876E+02     2.366260864E+03     1.500000000E+04
       18     5.240190724E+02     2.368492884E+03     1.500000000E+04
       19     6.464918778E+02     2.370553138E+03     1.500000000E+04
       20     7.691350434E+02     2.372236916E+03     1.500000000E+04
! ... 1647 like lines cut
/wb,elem,start            !  set before creation of elements
/com,*********** Elements for Body 1 'Surface Body' ***********
et,1,181
keyo,1,1,0          ! bending and membrane stiffness
keyo,1,3,2
MAT,1 $ TYPE,1 $ REAL,1 $ SECNUM,1 $ ESYS,0    ! ELEMNODES = 4
eblock,21,COMPACT,,1552
(21i9)
        1      605      351      621       14
        2      604      367      351      605
        3      603      383      367      604
        4      602      399      383      603
        5      601      415      399      602
        6      600      431      415      601
        7      599      447      431      600
        8      598      463      447      599
        9      597      479      463      598
       10      596      495      479      597
       11      595      511      495      596
       12      594      527      511      595
       13      593      543      527      594
       14      592      559      543      593
       15      591      575      559      592
       16       13      637      575      591
       17      351      352      620      621
       18      367      368      352      351
       19      383      384      368      367
       20      399      400      384      383
! ... 1533 like lines cut
secnum,1    ! reset the section ID to default
! Material Id = {AFAD8413-C973-4895-A4D5-43CA7B4986F5}
/wb,elem,end               !  done creating elements
toffst,273.15,      ! Temperature offset from absolute zero
/com,*********** Set Reference Temperature ***********
tref,22.
/wb,mat,start              !  starting to send materials
/com,*********** Send Materials ***********
Temperature = 'TEMP' ! Temperature
MP,DENS,1,7.85e-09,	! tonne mm^-3
MP,ALPX,1,1.2e-05,	! C^-1
MP,C,1,434000000,	! mm^2 s^-2 C^-1
MP,KXX,1,60.5,	! tonne mm s^-3 C^-1
MP,RSVX,1,0.00017,	! ohm mm
MP,EX,1,200000,	! tonne s^-2 mm^-1
MP,NUXY,1,0.3,
MP,MURX,1,10000,
MP,UVID,1,bdc95080-d718-4387-881c-ad3a9a165698
MP,UMID,1,59002a79-71c2-428e-906b-55d7dbee100e

/wb,mat,end                !  done sending materials
/com,*********** Send Sheet Properties ***********
sectype,1,shell
secdata,30000.
secoff,mid

!************************* Model Summary ********************
! Surface Body,	Structural Steel,	matid,	1
!************************* End Model Summary ********************
! get the diagonal of the bounding box. Needed later for other things
*get,_xmin,node,,mnloc,x
*get,_ymin,node,,mnloc,y
*get,_zmin,node,,mnloc,z
*get,_xmax,node,,mxloc,x
*get,_ymax,node,,mxloc,y
*get,_zmax,node,,mxloc,z
_ASMDIAG=(_xmax-_xmin)*(_xmax-_xmin)+(_ymax-_ymin)*(_ymax-_ymin)+(_zmax-_zmin)*(_zmax-_zmin)
_ASMDIAG=SQRT(_ASMDIAG)
/wb,contact,start          !  starting to send contact
/wb,contact,end            !  done creating contacts
/golist
/wb,load,start             !  starting to send loads
/com,*********** Fixed Supports ***********
CMBLOCK,_FIXEDSU,NODE,        8
(8i10)
         1         4        13        14       591      -605      1620     -1634
cmsel,s,_FIXEDSU
d,all,all
nsel,all
/com,*********** Define Pressure Vector Using Surface Effect Elements ***********
local,12,0,0.,0.,0.,0.,0.,0.
csys,0
et,2,154
MAT,2 $ TYPE,2 $ REAL,2 $ SECNUM,2 $ ESYS,12    ! ELEMNODES = 4
eblock,21,COMPACT,,1552
(21i9)
     1553      638      653      998       11
     1554      639      674      653      638
     1555      640      695      674      639
     1556      641      716      695      640
     1557      642      737      716      641
     1558      643      758      737      642
     1559      644      779      758      643
     1560      645      800      779      644
     1561      646      821      800      645
     1562      647      842      821      646
     1563      648      863      842      647
     1564      649      884      863      648
     1565      650      905      884      649
     1566      651      926      905      650
     1567      652      947      926      651
     1568       12      977      947      652
     1569      653      654      997      998
     1570      674      675      654      653
     1571      695      696      675      674
     1572      716      717      696      695
! ... 1533 like lines cut
secnum,1    ! reset the section ID to default
esel,s,type,,2
keyop,2,2,1         ! Apply load in local coordinate system
keyop,2,7,0         ! Use deformed area for application of load
esel,all
/com,*********** Define Pressure Vector Using Surface Effect Elements ***********
local,13,0,0.,0.,0.,0.,0.,0.
csys,0
et,3,154
MAT,3 $ TYPE,3 $ REAL,3 $ SECNUM,3 $ ESYS,13    ! ELEMNODES = 4
eblock,21,COMPACT,,1552
(21i9)
     3105      336       15      320       10
     3106      337       33       15      336
     3107      338       51       33      337
     3108      339       69       51      338
     3109      340       87       69      339
     3110      341      105       87      340
     3111      342      123      105      341
     3112      343      141      123      342
     3113      344      159      141      343
     3114      345      177      159      344
     3115      346      195      177      345
     3116      347      213      195      346
     3117      348      231      213      347
     3118      349      249      231      348
     3119      350      267      249      349
     3120        9      285      267      350
     3121       15       16      319      320
     3122       33       34       16       15
     3123       51       52       34       33
     3124       69       70       52       51
! ... 1533 like lines cut
secnum,1    ! reset the section ID to default
esel,s,type,,3
keyop,3,2,1         ! Apply load in local coordinate system
keyop,3,7,0         ! Use deformed area for application of load
esel,all
/com,*********** Define Pressure Vector Using Surface Effect Elements ***********
local,14,0,0.,0.,0.,0.,0.,0.
csys,0
et,4,154
MAT,4 $ TYPE,4 $ REAL,4 $ SECNUM,4 $ ESYS,14    ! ELEMNODES = 4
eblock,21,COMPACT,,1552
(21i9)
     4657      638      653      998       11
     4658      639      674      653      638
     4659      640      695      674      639
     4660      641      716      695      640
     4661      642      737      716      641
     4662      643      758      737      642
     4663      644      779      758      643
     4664      645      800      779      644
     4665      646      821      800      645
     4666      647      842      821      646
     4667      648      863      842      647
     4668      649      884      863      648
     4669      650      905      884      649
     4670      651      926      905      650
     4671      652      947      926      651
     4672       12      977      947      652
     4673      653      654      997      998
     4674      674      675      654      653
     4675      695      696      675      674
     4676      716      717      696      695
! ... 1533 like lines cut
secnum,1    ! reset the section ID to default
esel,s,type,,4
keyop,4,2,1         ! Apply load in local coordinate system
keyop,4,7,0         ! Use deformed area for application of load
esel,all
/gst,on,on
fini
*get,_numnode,node,0,count
*get,_numelem,elem,0,count
*get, _MAXELEMNUM, elem, 0, NUM, MAX
*get, _MAXNODENUM, node, 0, NUM, MAX
*get, _MAXELEMTYPE, etyp, 0, NUM, MAX
*get, _MAXREALCONST, rcon, 0, NUM, MAX
/go
/wb,load,end               !  done creating loads
/com,--- Number of total nodes = %_numnode%
/com,--- Number of contact elements = 4656
/com,--- Number of spring elements = 0
/com,--- Number of bearing elements = 0
/com,--- Number of solid elements = 1552
/com,--- Number of condensed parts = 0
/com,--- Number of total elements = %_numelem%
*get,_wallbsol,active,,time,wall
/com,****************************************************************************
/com,*************************    SOLUTION       ********************************
/com,****************************************************************************
/solu
antype,0                   ! static analysis
_thickRatio=  0     ! Ratio of thick parts in the model
eqsl,sparse,,,,,1
cntr,print,1               ! print out contact info and also make no initial contact an error
cncheck,dmp		!	Enable program controlled contact splitting for distributed memory parallel run
dmpoption,emat,no             ! Don't combine emat file for DANSYS
dmpoption,esav,no             ! Don't combine esav file for DANSYS
nldiag,cont,iter           ! print out contact info each equilibrium iteration
rescontrol,,none                 ! Do not keep any restart files
/com,****************************************************
/com,******************* SOLVE FOR LS 1 OF 1 ****************
esel,s,type,,2
nsle
sfe,all,1,pres,1,1.
sfe,all,2,pres,1,0.
sfe,all,3,pres,1,0.
esel,s,type,,3
nsle
sfe,all,1,pres,1,-1.
sfe,all,2,pres,1,0.
sfe,all,3,pres,1,0.
esel,s,type,,4
nsle
sfe,all,1,pres,1,0.
sfe,all,2,pres,1,-1.
sfe,all,3,pres,1,0.
nsel,all
esel,all
/nopr
/gopr
nsub,1,1,1
time,1.
outres,erase
outres,all,none
outres,nsol,all,
outres,rsol,all
outres,eangl,all
outres,etmp,all
outres,veng,all
outres,strs,all,
outres,epel,all,
outres,eppl,all,
outres,cont,all,
! *********** WB SOLVE COMMAND ***********
! check interactive state
*get,ANSINTER_,active,,int
*if,ANSINTER_,ne,0,then
/eof
*endif
solve
/com *************** Write FE CONNECTORS ********* 
CEWRITE,file,ce,,INTE
/com,****************************************************
/com,*************** FINISHED SOLVE FOR LS 1 *************
fini
*get,_wallasol,active,,time,wall
/nopr
*get,_numnode,node,0,count
*get,_numelem,elem,0,count
*get, _MAXELEMNUM, elem, 0, NUM, MAX
*get, _MAXNODENUM, node, 0, NUM, MAX,,,INTERNAL
*get, _MAXELEMTYPE, etyp, 0, NUM, MAX
*get, _MAXREALCONST, rcon, 0, NUM, MAX
*get,_NSOLTHREADS,active,0,ntfs
*get,_NSOLPROCESSES,active,0,npfs
/gopr
/post1
xmlo,ENCODING,ISO-8859-1
xmlo,parm
/xml,parm,xml
fini
/gopr
*get,_walldone,active,,time,wall
_preptime=(_wallbsol-_wallstrt)*3600
_solvtime=(_wallasol-_wallbsol)*3600
_posttime=(_walldone-_wallasol)*3600
_totaltim=(_walldone-_wallstrt)*3600
*get,_dlbratio,active,0,solu,dlbr
*get,_combtime,active,0,solu,comb
*get,_ssmode,active,0,solu,ssmm
*get,_ndofs,active,0,solu,ndof
*get,_sol_end_time,active,0,set,time
*if,_sol_end_time,eq,1.000000,then
/fclean				!clean distributed files
*endif
/com,--- Total number of nodes = %_numnode%
/com,--- Total number of elements = %_numelem%
/com,--- Element load balance ratio = %_dlbratio%
/com,--- Time to combine distributed files = %_combtime%
/com,--- Sparse memory mode = %_ssmode%
/com,--- Number of DOF = %_ndofs%
/wb,file,end               ! done with WB generated input
