/batch
/config,noeldb,1     ! force off writing results to database
*get,_wallstrt,active,,time,wall
! ANSYS input file written by Workbench version 2026 R1
! File used for geometry attach: C:\Users\MK\AppData\Local\Temp\WB_MK_20228_2\wbnew_files\dp0\Geom\DM\Geom.agdb
/title,wbnew--Static Structural (B5)
! ****** Begin Custom Load Command Snippet ******
/COM, ACT Extensions:
/COM,     LSDYNA, 2026.1
/COM,     5f463412-bd3e-484b-87e7-cbc0a665e474, wbex
/COM,     ANSYSMotion, 2026.1
/COM,     20180725-3f81-49eb-9f31-41364844c769, wbex
! ****** End   Custom Load Command Snippet ******
*DIM,_wb_ProjectScratch_dir,string,248
_wb_ProjectScratch_dir(1) = 'C:\Users\MK\AppData\Local\Temp\WB_MK_20228_2\_ProjectScratch\Scr6556\'
*DIM,_wb_SolverFiles_dir,string,248
_wb_SolverFiles_dir(1) = 'C:\Users\MK\AppData\Local\Temp\WB_MK_20228_2\wbnew_files\dp0\SYS\MECH\'
*DIM,_wb_userfiles_dir,string,248
_wb_userfiles_dir(1) = 'C:\Users\MK\AppData\Local\Temp\WB_MK_20228_2\wbnew_files\user_files\'
/com,--- Data in consistent NMM units. See Solving Units in the help system for more information.
/units,MPA
/nopr
/wb,file,start              !  signify a WB generated input file
/prep7
! Turn off shape checking because checks already performed inside WB mesher.
! See help system for more information.
SHPP,OFF,,NOWARN
/nolist
etcon,set             ! allow ANSYS to choose best KEYOP's for 180x elements, resets any applicable keyopt to MAPDL defaults
/com,*********** Send User Defined Coordinate System(s) ***********
csys,0
/com,*********** Nodes for the whole assembly ***********
nblock,3,,3641
(1i9,3e20.9e3)
        1     2.099989679E+02    -3.719891960E-04     7.272727273E+00
        2     2.099989679E+02    -3.719891960E-04     1.454545455E+01
        3     2.099989679E+02    -3.719891960E-04     2.181818182E+01
        4     2.099989679E+02    -3.719891960E-04     2.909090909E+01
        5     2.099989679E+02    -3.719891960E-04     3.636363636E+01
        6     2.099989679E+02    -3.719891960E-04     4.363636364E+01
        7     2.099989679E+02    -3.719891960E-04     5.090909091E+01
        8     2.099989679E+02    -3.719891960E-04     5.818181818E+01
        9     2.099989679E+02    -3.719891960E-04     6.545454545E+01
       10     2.099989679E+02    -3.719891960E-04     7.272727273E+01
       11     2.131203884E+02    -3.121662765E+00     7.272727273E+00
       12     2.131203884E+02    -3.121662765E+00     1.454545455E+01
       13     2.131203884E+02    -3.121662765E+00     2.181818182E+01
       14     2.131203884E+02    -3.121662765E+00     2.909090909E+01
       15     2.131203884E+02    -3.121662765E+00     3.636363636E+01
       16     2.131203884E+02    -3.121662765E+00     4.363636364E+01
       17     2.131203884E+02    -3.121662765E+00     5.090909091E+01
       18     2.131203884E+02    -3.121662765E+00     5.818181818E+01
       19     2.131203884E+02    -3.121662765E+00     6.545454545E+01
       20     2.131203884E+02    -3.121662765E+00     7.272727273E+01
! ... 3291 like lines cut
/wb,elem,start            !  set before creation of elements
/com,*********** Elements for Body 1 'pin' ***********
et,1,186
keyo,1,2,1          ! set full integration on SOLID186
MAT,1 $ TYPE,1 $ REAL,1 $ SECNUM,1 $ ESYS,0    ! ELEMNODES = 20
eblock,21,COMPACT,,132
(21i9)
        1        1       31       41       51       99       96       95       94      207      329      360      208      518      515      512      513      210      330      361      392
        2        1       51       41       31        2       52       42       32      208      360      329      207      214      364      333      213      205      390      359      328
        3        2       52       42       32        3       53       43       33      214      364      333      213      219      367      336      218      211      394      363      332
        4        3       53       43       33        4       54       44       34      219      367      336      218      224      370      339      223      216      397      366      335
        5        4       54       44       34        5       55       45       35      224      370      339      223      229      373      342      228      221      400      369      338
        6        5       55       45       35        6       56       46       36      229      373      342      228      234      376      345      233      226      403      372      341
        7        6       56       46       36        7       57       47       37      234      376      345      233      239      379      348      238      231      406      375      344
        8        7       57       47       37        8       58       48       38      239      379      348      238      244      382      351      243      236      409      378      347
        9        8       58       48       38        9       59       49       39      244      382      351      243      249      385      354      248      241      412      381      350
       10        9       59       49       39       10       60       50       40      249      385      354      248      253      387      356      252      246      415      384      353
       11       10       60       50       40      100      105      104      103      253      387      356      252      526      535      533      525      255      419      388      357
       12        1       11       21       31       99       98       97       96      206      257      298      207      522      520      517      518      210      259      299      330
       13        1       31       21       11        2       32       22       12      207      298      257      206      213      302      262      212      205      328      297      256
       14        2       32       22       12        3       33       23       13      213      302      262      212      218      305      266      217      211      332      301      261
       15        3       33       23       13        4       34       24       14      218      305      266      217      223      308      270      222      216      335      304      265
       16        4       34       24       14        5       35       25       15      223      308      270      222      228      311      274      227      221      338      307      269
       17        5       35       25       15        6       36       26       16      228      311      274      227      233      314      278      232      226      341      310      273
       18        6       36       26       16        7       37       27       17      233      314      278      232      238      317      282      237      231      344      313      277
       19        7       37       27       17        8       38       28       18      238      317      282      237      243      320      286      242      236      347      316      281
       20        8       38       28       18        9       39       29       19      243      320      286      242      248      323      290      247      241      350      319      285
! ... 113 like lines cut
secnum,1    ! reset the section ID to default
! Material Id = {243B22CF-70EA-41CB-8FBD-782DCD1AA89B}
/com,*********** Elements for Body 2 'u shape' ***********
et,2,187
MAT,2 $ TYPE,2 $ REAL,2 $ SECNUM,2 $ ESYS,0    ! ELEMNODES = 10
eblock,21,COMPACT,,473
(21i9)
      133      763      799      887      877     1121     1355     1126     1124     1354     1644
      134      757      887      799      877     1088     1355     1081     1085     1644     1354
      135      759      763      799      887     1097     1121     1098     1101     1126     1355
      136      757      799      887      759     1081     1355     1088     1080     1098     1101
      137      757      887      877      878     1088     1644     1085     1086     1646     1640
      138      757      759      887      878     1080     1101     1088     1086     1100     1646
      139      758      806      887      759     1092     1388     1096     1089     1099     1101
      140      758      887      763      759     1096     1126     1090     1089     1101     1097
      141      763      877      887      880     1124     1644     1126     1125     1642     1649
      142      877      878      887      880     1640     1646     1644     1642     1645     1649
      143      759      806      887      878     1099     1388     1101     1100     1386     1646
      144      806      887      878      880     1388     1646     1386     1387     1649     1645
      145      743      800      886      872      989     1360      996      995     1359     1628
      146      743      886      869      872      996     1618      994      995     1628     1617
      147      743      788      886      800      988     1292      996      989     1287     1360
      148      743      886      804      869      996     1379      990      994     1618     1378
      149      743      804      886      788      990     1379      996      988     1288     1292
      150      804      886      832      869     1379     1497     1375     1378     1618     1496
      151      788      804      886      832     1288     1379     1292     1290     1375     1497
      152      791      886      824      872     1310     1472     1307     1309     1628     1470
! ... 454 like lines cut
secnum,1    ! reset the section ID to default
! Material Id = {F4FC650A-230B-436A-A5B8-955A52075CA3}
/com,*********** Elements for Body 3 'york' ***********
et,3,187
MAT,3 $ TYPE,3 $ REAL,3 $ SECNUM,3 $ ESYS,0    ! ELEMNODES = 10
eblock,21,COMPACT,,859
(21i9)
      606     1761     1936     1840     1933     2656     3044     2654     2655     3310     3043
      607     1761     1936     1831     1840     2656     2973     2653     2654     3044     2968
      608     1840     1936     1861     1933     3044     3154     3039     3043     3310     3153
      609     1762     1831     1936     1911     2658     2973     2661     2660     2971     3298
      610     1761     1831     1936     1762     2653     2973     2656     2652     2658     2661
      611     1840     1875     1861     1936     3042     3152     3039     3044     3205     3154
      612     1831     1936     1875     1840     2973     3205     2970     2968     3044     3042
      613     1737     1936     1761     1933     2516     2656     2512     2515     3310     2655
      614     1736     1761     1737     1936     2503     2512     2502     2509     2656     2516
      615     1736     1762     1936     1911     2504     2661     2509     2508     2660     3298
      616     1736     1761     1936     1762     2503     2656     2509     2504     2652     2661
      617     1831     1875     1936     1911     2970     3205     2973     2971     3203     3298
      618     1737     1861     1936     1933     2513     3154     2516     2515     3153     3310
      619     1736     1737     1861     1936     2502     2513     2506     2509     2516     3154
      620     1736     1936     1875     1911     2509     3205     2507     2508     3298     3203
      621     1736     1861     1875     1936     2506     3152     2507     2509     3154     3205
      622     1843     1873     1935     1918     3058     3198     3061     3060     3197     3306
      623     1843     1935     1873     1858     3061     3198     3058     3057     3142     3140
      624     1765     1843     1935     1918     2671     3061     2673     2672     3060     3306
      625     1765     1843     1842     1935     2671     3051     2670     2673     3061     3055
! ... 840 like lines cut
secnum,1    ! reset the section ID to default
! Material Id = {8ACB1CC9-E1D6-40FF-853E-A610EBF260AD}
/wb,elem,end               !  done creating elements
toffst,273.15,      ! Temperature offset from absolute zero
/com,*********** Set Reference Temperature ***********
tref,22.
/wb,mat,start              !  starting to send materials
/com,*********** Send Materials ***********
Temperature = 'TEMP' ! Temperature
MP,DENS,1,7.85e-09,	! tonne mm^-3
MP,ALPX,1,1.2e-05,	! C^-1
MP,C,1,434000000,	! mm^2 s^-2 C^-1
MP,KXX,1,60.5,	! tonne mm s^-3 C^-1
MP,RSVX,1,0.00017,	! ohm mm
MP,EX,1,200000,	! tonne s^-2 mm^-1
MP,NUXY,1,0.3,
MP,MURX,1,10000,
MP,UVID,1,708987b9-7516-433e-b807-fb6ee5843493
MP,UMID,1,59002a79-71c2-428e-906b-55d7dbee100e

Temperature = 'TEMP' ! Temperature
MP,DENS,2,7.85e-09,	! tonne mm^-3
MP,ALPX,2,1.2e-05,	! C^-1
MP,C,2,434000000,	! mm^2 s^-2 C^-1
MP,KXX,2,60.5,	! tonne mm s^-3 C^-1
MP,RSVX,2,0.00017,	! ohm mm
MP,EX,2,200000,	! tonne s^-2 mm^-1
MP,NUXY,2,0.3,
MP,MURX,2,10000,
MP,UVID,2,708987b9-7516-433e-b807-fb6ee5843493
MP,UMID,2,59002a79-71c2-428e-906b-55d7dbee100e

Temperature = 'TEMP' ! Temperature
MP,DENS,3,7.85e-09,	! tonne mm^-3
MP,ALPX,3,1.2e-05,	! C^-1
MP,C,3,434000000,	! mm^2 s^-2 C^-1
MP,KXX,3,60.5,	! tonne mm s^-3 C^-1
MP,RSVX,3,0.00017,	! ohm mm
MP,EX,3,200000,	! tonne s^-2 mm^-1
MP,NUXY,3,0.3,
MP,MURX,3,10000,
MP,UVID,3,708987b9-7516-433e-b807-fb6ee5843493
MP,UMID,3,59002a79-71c2-428e-906b-55d7dbee100e

/wb,mat,end                !  done sending materials
!************************* Model Summary ********************
! pin,	Structural Steel,	matid,	1
! u shape,	Structural Steel,	matid,	2
! york,	Structural Steel,	matid,	3
!************************* End Model Summary ********************
! get the diagonal of the bounding box. Needed later for other things
*get,_xmin,node,,mnloc,x
*get,_ymin,node,,mnloc,y
*get,_zmin,node,,mnloc,z
*get,_xmax,node,,mxloc,x
*get,_ymax,node,,mxloc,y
*get,_zmax,node,,mxloc,z
_ASMDIAG=(_xmax-_xmin)*(_xmax-_xmin)+(_ymax-_ymin)*(_ymax-_ymin)+(_zmax-_zmin)*(_zmax-_zmin)
_ASMDIAG=SQRT(_ASMDIAG)
/wb,contact,start          !  starting to send contact
/com,*********** Create Contact "No Separation - pin To u shape" ***********
/com,            Real Constant Set For Above Contact Is 5 & 4 
*set,tid,5
*set,cid,4
r,tid
r,cid
et,tid,170
et,cid,174
MAT,5 $ TYPE,5 $ REAL,5 $ SECNUM,5 $ ESYS,0    ! ELEMNODES = 8
eblock,21,COMPACT,,40
(21i9)
     2299      138      131      191      192      598      599      716      614
     2300      145      138      192      193      613      614      717      629
     2301      152      145      193      194      628      629      718      644
     2302      159      152      194      195      643      644      719      659
     2303      166      159      195      196      658      659      720      674
     2304      138      139      132      131      612      601      597      598
     2305      145      146      139      138      627      616      612      613
     2306      152      153      146      145      642      631      627      628
     2307      159      160      153      152      657      646      642      643
     2308      166      167      160      159      672      661      657      658
     2309      139      140      133      132      615      603      600      601
     2310      146      147      140      139      630      618      615      616
     2311      153      154      147      146      645      633      630      631
     2312      160      161      154      153      660      648      645      646
     2313      167      168      161      160      675      663      660      661
     2314      140      141      134      133      617      605      602      603
     2315      147      148      141      140      632      620      617      618
     2316      154      155      148      147      647      635      632      633
     2317      161      162      155      154      662      650      647      648
     2318      168      169      162      161      677      665      662      663
! ... 21 like lines cut
secnum,1    ! reset the section ID to default
MAT,4 $ TYPE,4 $ REAL,4 $ SECNUM,4 $ ESYS,0    ! ELEMNODES = 8
eblock,21,COMPACT,,40
(21i9)
     2339      138      131      191      192      598      599      716      614
     2340      145      138      192      193      613      614      717      629
     2341      152      145      193      194      628      629      718      644
     2342      159      152      194      195      643      644      719      659
     2343      166      159      195      196      658      659      720      674
     2344      138      139      132      131      612      601      597      598
     2345      145      146      139      138      627      616      612      613
     2346      152      153      146      145      642      631      627      628
     2347      159      160      153      152      657      646      642      643
     2348      166      167      160      159      672      661      657      658
     2349      139      140      133      132      615      603      600      601
     2350      146      147      140      139      630      618      615      616
     2351      153      154      147      146      645      633      630      631
     2352      160      161      154      153      660      648      645      646
     2353      167      168      161      160      675      663      660      661
     2354      140      141      134      133      617      605      602      603
     2355      147      148      141      140      632      620      617      618
     2356      154      155      148      147      647      635      632      633
     2357      161      162      155      154      662      650      647      648
     2358      168      169      162      161      677      665      662      663
! ... 21 like lines cut
secnum,1    ! reset the section ID to default
MAT,4 $ TYPE,4 $ REAL,5 $ SECNUM,4 $ ESYS,0    ! ELEMNODES = 8
eblock,21,COMPACT,,24
(21i9)
     2379      740      739      803      803      958      961      803      968
     2380      739      738      801      801      949      953      801      960
     2381      738      743      800      800      950      989      800      952
     2382      784      789      802      802     1257     1293      802     1258
     2383      743      742      804      804      981      984      804      990
     2384      786      785      803      803     1264     1265      803     1272
     2385      789      788      804      804     1286     1288      804     1294
     2386      741      740      805      805      966      969      805      976
     2387      742      741      802      802      973      975      802      983
     2388      787      786      801      801     1270     1271      801     1280
     2389      788      787      800      800     1278     1279      800     1287
     2390      785      784      805      805     1256     1259      805     1266
     2391      741      784      802      802      974     1258      802      975
     2392      741      805      784      784      976     1259      784      974
     2393      740      785      805      805      967     1266      805      969
     2394      740      803      785      785      968     1265      785      967
     2395      743      788      800      800      988     1287      800      989
     2396      743      804      788      788      990     1288      788      988
     2397      739      801      786      786      960     1271      786      959
     2398      739      786      803      803      959     1272      803      961
! ... 5 like lines cut
secnum,1    ! reset the section ID to default
MAT,5 $ TYPE,5 $ REAL,4 $ SECNUM,5 $ ESYS,0    ! ELEMNODES = 8
eblock,21,COMPACT,,24
(21i9)
     2403      740      739      803      803      958      961      803      968
     2404      739      738      801      801      949      953      801      960
     2405      738      743      800      800      950      989      800      952
     2406      784      789      802      802     1257     1293      802     1258
     2407      743      742      804      804      981      984      804      990
     2408      786      785      803      803     1264     1265      803     1272
     2409      789      788      804      804     1286     1288      804     1294
     2410      741      740      805      805      966      969      805      976
     2411      742      741      802      802      973      975      802      983
     2412      787      786      801      801     1270     1271      801     1280
     2413      788      787      800      800     1278     1279      800     1287
     2414      785      784      805      805     1256     1259      805     1266
     2415      741      784      802      802      974     1258      802      975
     2416      741      805      784      784      976     1259      784      974
     2417      740      785      805      805      967     1266      805      969
     2418      740      803      785      785      968     1265      785      967
     2419      743      788      800      800      988     1287      800      989
     2420      743      804      788      788      990     1288      788      988
     2421      739      801      786      786      960     1271      786      959
     2422      739      786      803      803      959     1272      803      961
! ... 5 like lines cut
secnum,1    ! reset the section ID to default
keyo,cid,8,2               ! auto create asymmetric contact (from Program Controlled setting)
keyo,cid,10,0              ! adjust contact stiffness each NR iteration (from Program Controlled setting)
keyo,cid,12,4              ! no separation always
keyo,cid,18,1              ! small sliding turned on by application
keyo,cid,2,0               ! augmented Lagrange (from Program Controlled setting)
keyo,cid,4,0               ! on Gauss point (from Program Controlled setting)
keyo,cid,9,1               ! ignore initial gaps/penetration
keyo,cid,7,0               ! No Prediction
rmod,tid,3,10.      ! FKN
rmod,tid,5,0.       ! ICONT
rmod,tid,6,0.       ! PINB
rmod,tid,10,0.      ! CNOF
rmod,tid,12,0.      ! FKT
rmod,tid,36,32      ! WB DSID
rmod,cid,3,10.      ! FKN
rmod,cid,5,0.       ! ICONT
rmod,cid,6,0.       ! PINB
rmod,cid,10,0.      ! CNOF
rmod,cid,12,0.      ! FKT
rmod,cid,36,32      ! WB DSID
/com,*********** Create Contact "No Separation - pin To york" ***********
/com,            Real Constant Set For Above Contact Is 7 & 6 
*set,tid,7
*set,cid,6
r,tid
r,cid
et,tid,170
et,cid,174
MAT,7 $ TYPE,7 $ REAL,7 $ SECNUM,7 $ ESYS,0    ! ELEMNODES = 8
eblock,21,COMPACT,,32
(21i9)
     2427      159      152      194      195      643      644      719      659
     2428      166      159      195      196      658      659      720      674
     2429      173      166      196      197      673      674      721      689
     2430      180      173      197      198      688      689      722      703
     2431      159      160      153      152      657      646      642      643
     2432      166      167      160      159      672      661      657      658
     2433      173      174      167      166      687      676      672      673
     2434      180      181      174      173      702      691      687      688
     2435      160      161      154      153      660      648      645      646
     2436      167      168      161      160      675      663      660      661
     2437      174      175      168      167      690      678      675      676
     2438      181      182      175      174      704      693      690      691
     2439      161      162      155      154      662      650      647      648
     2440      168      169      162      161      677      665      662      663
     2441      175      176      169      168      692      680      677      678
     2442      182      183      176      175      705      695      692      693
     2443      162      163      156      155      664      652      649      650
     2444      169      170      163      162      679      667      664      665
     2445      176      177      170      169      694      682      679      680
     2446      183      184      177      176      706      697      694      695
! ... 13 like lines cut
secnum,1    ! reset the section ID to default
MAT,6 $ TYPE,6 $ REAL,6 $ SECNUM,6 $ ESYS,0    ! ELEMNODES = 8
eblock,21,COMPACT,,32
(21i9)
     2459      159      152      194      195      643      644      719      659
     2460      166      159      195      196      658      659      720      674
     2461      173      166      196      197      673      674      721      689
     2462      180      173      197      198      688      689      722      703
     2463      159      160      153      152      657      646      642      643
     2464      166      167      160      159      672      661      657      658
     2465      173      174      167      166      687      676      672      673
     2466      180      181      174      173      702      691      687      688
     2467      160      161      154      153      660      648      645      646
     2468      167      168      161      160      675      663      660      661
     2469      174      175      168      167      690      678      675      676
     2470      181      182      175      174      704      693      690      691
     2471      161      162      155      154      662      650      647      648
     2472      168      169      162      161      677      665      662      663
     2473      175      176      169      168      692      680      677      678
     2474      182      183      176      175      705      695      692      693
     2475      162      163      156      155      664      652      649      650
     2476      169      170      163      162      679      667      664      665
     2477      176      177      170      169      694      682      679      680
     2478      183      184      177      176      706      697      694      695
! ... 13 like lines cut
secnum,1    ! reset the section ID to default
MAT,6 $ TYPE,6 $ REAL,7 $ SECNUM,6 $ ESYS,0    ! ELEMNODES = 8
eblock,21,COMPACT,,24
(21i9)
     2491     1673     1700     1777     1777     2096     2281     1777     2098
     2492     1672     1677     1776     1776     2087     2131     1776     2090
     2493     1673     1672     1775     1775     2086     2089     1775     2097
     2494     1674     1673     1777     1777     2095     2098     1777     2106
     2495     1673     1775     1700     1700     2097     2280     1700     2096
     2496     1778     1699     1698     1698     2274     2263     1698     2265
     2497     1699     1777     1700     1700     2273     2281     1700     2272
     2498     1672     1701     1775     1775     2088     2287     1775     2089
     2499     1700     1775     1701     1701     2280     2287     1701     2279
     2500     1677     1702     1776     1776     2130     2295     1776     2131
     2501     1701     1776     1702     1702     2288     2295     1702     2286
     2502     1675     1778     1698     1698     2114     2265     1698     2113
     2503     1675     1698     1780     1780     2113     2266     1780     2115
     2504     1779     1677     1676     1676     2132     2121     1676     2123
     2505     1676     1780     1703     1703     2124     2301     1703     2122
     2506     1676     1703     1779     1779     2122     2300     1779     2123
     2507     1675     1780     1676     1676     2115     2124     1676     2112
     2508     1702     1779     1703     1703     2296     2300     1703     2294
     2509     1780     1698     1703     1703     2266     2264     1703     2301
     2510     1674     1778     1675     1675     2107     2114     1675     2103
! ... 5 like lines cut
secnum,1    ! reset the section ID to default
MAT,7 $ TYPE,7 $ REAL,6 $ SECNUM,7 $ ESYS,0    ! ELEMNODES = 8
eblock,21,COMPACT,,24
(21i9)
     2515     1673     1700     1777     1777     2096     2281     1777     2098
     2516     1672     1677     1776     1776     2087     2131     1776     2090
     2517     1673     1672     1775     1775     2086     2089     1775     2097
     2518     1674     1673     1777     1777     2095     2098     1777     2106
     2519     1673     1775     1700     1700     2097     2280     1700     2096
     2520     1778     1699     1698     1698     2274     2263     1698     2265
     2521     1699     1777     1700     1700     2273     2281     1700     2272
     2522     1672     1701     1775     1775     2088     2287     1775     2089
     2523     1700     1775     1701     1701     2280     2287     1701     2279
     2524     1677     1702     1776     1776     2130     2295     1776     2131
     2525     1701     1776     1702     1702     2288     2295     1702     2286
     2526     1675     1778     1698     1698     2114     2265     1698     2113
     2527     1675     1698     1780     1780     2113     2266     1780     2115
     2528     1779     1677     1676     1676     2132     2121     1676     2123
     2529     1676     1780     1703     1703     2124     2301     1703     2122
     2530     1676     1703     1779     1779     2122     2300     1779     2123
     2531     1675     1780     1676     1676     2115     2124     1676     2112
     2532     1702     1779     1703     1703     2296     2300     1703     2294
     2533     1780     1698     1703     1703     2266     2264     1703     2301
     2534     1674     1778     1675     1675     2107     2114     1675     2103
! ... 5 like lines cut
secnum,1    ! reset the section ID to default
keyo,cid,8,2               ! auto create asymmetric contact (from Program Controlled setting)
keyo,cid,10,0              ! adjust contact stiffness each NR iteration (from Program Controlled setting)
keyo,cid,12,4              ! no separation always
keyo,cid,18,1              ! small sliding turned on by application
keyo,cid,2,0               ! augmented Lagrange (from Program Controlled setting)
keyo,cid,4,0               ! on Gauss point (from Program Controlled setting)
keyo,cid,9,1               ! ignore initial gaps/penetration
keyo,cid,7,0               ! No Prediction
rmod,tid,3,10.      ! FKN
rmod,tid,5,0.       ! ICONT
rmod,tid,6,0.       ! PINB
rmod,tid,10,0.      ! CNOF
rmod,tid,12,0.      ! FKT
rmod,tid,36,35      ! WB DSID
rmod,cid,3,10.      ! FKN
rmod,cid,5,0.       ! ICONT
rmod,cid,6,0.       ! PINB
rmod,cid,10,0.      ! CNOF
rmod,cid,12,0.      ! FKT
rmod,cid,36,35      ! WB DSID
/com,*********** Create Contact "No Separation - u shape To york" ***********
/com,            Real Constant Set For Above Contact Is 9 & 8 
*set,tid,9
*set,cid,8
r,tid
r,cid
et,tid,170
et,cid,174
MAT,9 $ TYPE,9 $ REAL,9 $ SECNUM,9 $ ESYS,0    ! ELEMNODES = 8
eblock,21,COMPACT,,57
(21i9)
     2539      834      836      838      838     1501     1517      838     1503
     2540      834      844      837      837     1505     1526      837     1502
     2541      753      754      835      835     1054     1062      835     1057
     2542      837      844      841      841     1526     1542      841     1525
     2543      834      839      836      836     1504     1518      836     1501
     2544      835      836      839      839     1510     1518      839     1511
     2545      838      847      848      848     1530     1563      848     1531
     2546      834      837      839      839     1502     1524      839     1504
     2547      836      849      838      838     1519     1532      838     1517
     2548      834      848      844      844     1506     1556      844     1505
     2549      834      838      848      848     1503     1531      848     1506
     2550      738      739      835      835      949      962      835      954
     2551      754      755      836      836     1059     1068      836     1063
     2552      754      836      835      835     1063     1510      835     1062
     2553      738      837      743      743      955      991      743      950
     2554      738      835      839      839      954     1511      839      956
     2555      738      839      837      837      956     1524      837      955
     2556      752      753      840      840     1048     1058      840     1051
     2557      739      840      835      835      963     1512      835      962
     2558      753      835      840      840     1057     1512      840     1058
! ... 38 like lines cut
secnum,1    ! reset the section ID to default
MAT,8 $ TYPE,8 $ REAL,8 $ SECNUM,8 $ ESYS,0    ! ELEMNODES = 8
eblock,21,COMPACT,,57
(21i9)
     2596      834      836      838      838     1501     1517      838     1503
     2597      834      844      837      837     1505     1526      837     1502
     2598      753      754      835      835     1054     1062      835     1057
     2599      837      844      841      841     1526     1542      841     1525
     2600      834      839      836      836     1504     1518      836     1501
     2601      835      836      839      839     1510     1518      839     1511
     2602      838      847      848      848     1530     1563      848     1531
     2603      834      837      839      839     1502     1524      839     1504
     2604      836      849      838      838     1519     1532      838     1517
     2605      834      848      844      844     1506     1556      844     1505
     2606      834      838      848      848     1503     1531      848     1506
     2607      738      739      835      835      949      962      835      954
     2608      754      755      836      836     1059     1068      836     1063
     2609      754      836      835      835     1063     1510      835     1062
     2610      738      837      743      743      955      991      743      950
     2611      738      835      839      839      954     1511      839      956
     2612      738      839      837      837      956     1524      837      955
     2613      752      753      840      840     1048     1058      840     1051
     2614      739      840      835      835      963     1512      835      962
     2615      753      835      840      840     1057     1512      840     1058
! ... 38 like lines cut
secnum,1    ! reset the section ID to default
MAT,8 $ TYPE,8 $ REAL,9 $ SECNUM,8 $ ESYS,0    ! ELEMNODES = 8
eblock,21,COMPACT,,54
(21i9)
     2653     1794     1805     1797     1797     2806     2823     1797     2804
     2654     1793     1800     1803     1803     2796     2843     1803     2797
     2655     1793     1796     1798     1798     2793     2816     1798     2794
     2656     1793     1799     1796     1796     2795     2817     1796     2793
     2657     1793     1803     1799     1799     2797     2835     1799     2795
     2658     1698     1699     1794     1794     2263     2275     1794     2267
     2659     1797     1804     1795     1795     2822     2812     1795     2810
     2660     1799     1803     1807     1807     2835     2853     1807     2836
     2661     1714     1715     1794     1794     2360     2366     1794     2362
     2662     1698     1795     1703     1703     2268     2302     1703     2264
     2663     1708     1795     1709     1709     2329     2332     1709     2327
     2664     1711     1712     1796     1796     2343     2349     1796     2344
     2665     1716     1717     1797     1797     2369     2382     1797     2372
     2666     1698     1794     1797     1797     2267     2804     1797     2269
     2667     1700     1701     1798     1798     2279     2290     1798     2282
     2668     1712     1798     1796     1796     2350     2816     1796     2349
     2669     1701     1793     1798     1798     2289     2794     1798     2290
     2670     1696     1796     1799     1799     2255     2817     1799     2256
     2671     1696     1799     1697     1697     2256     2259     1697     2253
     2672     1706     1800     1707     1707     2318     2324     1707     2316
! ... 35 like lines cut
secnum,1    ! reset the section ID to default
MAT,9 $ TYPE,9 $ REAL,8 $ SECNUM,9 $ ESYS,0    ! ELEMNODES = 8
eblock,21,COMPACT,,54
(21i9)
     2707     1794     1805     1797     1797     2806     2823     1797     2804
     2708     1793     1800     1803     1803     2796     2843     1803     2797
     2709     1793     1796     1798     1798     2793     2816     1798     2794
     2710     1793     1799     1796     1796     2795     2817     1796     2793
     2711     1793     1803     1799     1799     2797     2835     1799     2795
     2712     1698     1699     1794     1794     2263     2275     1794     2267
     2713     1797     1804     1795     1795     2822     2812     1795     2810
     2714     1799     1803     1807     1807     2835     2853     1807     2836
     2715     1714     1715     1794     1794     2360     2366     1794     2362
     2716     1698     1795     1703     1703     2268     2302     1703     2264
     2717     1708     1795     1709     1709     2329     2332     1709     2327
     2718     1711     1712     1796     1796     2343     2349     1796     2344
     2719     1716     1717     1797     1797     2369     2382     1797     2372
     2720     1698     1794     1797     1797     2267     2804     1797     2269
     2721     1700     1701     1798     1798     2279     2290     1798     2282
     2722     1712     1798     1796     1796     2350     2816     1796     2349
     2723     1701     1793     1798     1798     2289     2794     1798     2290
     2724     1696     1796     1799     1799     2255     2817     1799     2256
     2725     1696     1799     1697     1697     2256     2259     1697     2253
     2726     1706     1800     1707     1707     2318     2324     1707     2316
! ... 35 like lines cut
secnum,1    ! reset the section ID to default
keyo,cid,8,2               ! auto create asymmetric contact (from Program Controlled setting)
keyo,cid,10,0              ! adjust contact stiffness each NR iteration (from Program Controlled setting)
keyo,cid,12,4              ! no separation always
keyo,cid,18,1              ! small sliding turned on by application
keyo,cid,2,0               ! augmented Lagrange (from Program Controlled setting)
keyo,cid,4,0               ! on Gauss point (from Program Controlled setting)
keyo,cid,9,1               ! ignore initial gaps/penetration
keyo,cid,7,0               ! No Prediction
rmod,tid,3,10.      ! FKN
rmod,tid,5,0.       ! ICONT
rmod,tid,6,0.       ! PINB
rmod,tid,10,0.      ! CNOF
rmod,tid,12,0.      ! FKT
rmod,tid,36,38      ! WB DSID
rmod,cid,3,10.      ! FKN
rmod,cid,5,0.       ! ICONT
rmod,cid,6,0.       ! PINB
rmod,cid,10,0.      ! CNOF
rmod,cid,12,0.      ! FKT
rmod,cid,36,38      ! WB DSID
nsel,all
esel,all
/wb,contact,end            !  done creating contacts
/golist
/wb,load,start             !  starting to send loads
/com,*********** Fixed Supports ***********
CMBLOCK,_FIXEDSU,NODE,       15
(8i10)
      1730      1741      1752     -1757      2466      2467      2538      2539
      2607     -2610      2614      2615      2620      2624      2628
cmsel,s,_FIXEDSU
d,all,all
nsel,all
/com,*********** Define Pressure Using Surface Effect Elements "Pressure" ***********
et,10,154
MAT,10 $ TYPE,10 $ REAL,10 $ SECNUM,10 $ ESYS,0    ! ELEMNODES = 8
eblock,21,COMPACT,,14
(21i9)
     2761      769      855      853      853     1159     1580      853     1158
     2762      764      765      855      855     1127     1136      855     1132
     2763      760      854      762      762     1107     1117      762     1103
     2764      768      769      853      853     1150     1158      853     1153
     2765      762      854      853      853     1117     1579      853     1116
     2766      760      767      854      854     1104     1147      854     1107
     2767      763      853      855      855     1122     1580      855     1123
     2768      758      763      855      855     1090     1123      855     1094
     2769      768      853      854      854     1153     1579      854     1154
     2770      762      853      763      763     1116     1122      763     1114
     2771      764      855      769      769     1132     1159      769     1128
     2772      758      855      765      765     1094     1136      765     1091
     2773      766      768      854      854     1139     1154      854     1143
     2774      766      854      767      767     1143     1147      767     1138
-1
secnum,1    ! reset the section ID to default
esel,s,type,,10
keyop,10,7,0        ! Use deformed area for application of load
esel,all
esel,all
/gst,on,on
fini
*get,_numnode,node,0,count
*get,_numelem,elem,0,count
*get, _MAXELEMNUM, elem, 0, NUM, MAX
*get, _MAXNODENUM, node, 0, NUM, MAX
*get, _MAXELEMTYPE, etyp, 0, NUM, MAX
*get, _MAXREALCONST, rcon, 0, NUM, MAX
/go
/wb,load,end               !  done creating loads
/com,--- Number of total nodes = %_numnode%
/com,--- Number of contact elements = 476
/com,--- Number of spring elements = 0
/com,--- Number of bearing elements = 0
/com,--- Number of solid elements = 1464
/com,--- Number of condensed parts = 0
/com,--- Number of total elements = %_numelem%
*get,_wallbsol,active,,time,wall
/com,****************************************************************************
/com,*************************    SOLUTION       ********************************
/com,****************************************************************************
/solu
antype,0                   ! static analysis
_thickRatio=0.333   ! Ratio of thick parts in the model
eqsl,sparse,,,,,1
cntr,print,1               ! print out contact info and also make no initial contact an error
cncheck,dmp		!	Enable program controlled contact splitting for distributed memory parallel run
dmpoption,emat,no             ! Don't combine emat file for DANSYS
dmpoption,esav,no             ! Don't combine esav file for DANSYS
nldiag,cont,iter           ! print out contact info each equilibrium iteration
rescontrol,,none                 ! Do not keep any restart files
/com,****************************************************
/com,******************* SOLVE FOR LS 1 OF 1 ****************
esel,s,type,,10
nsle
sf,all,pres,-1.
nsel,all
esel,all
esel,all
/nopr
/gopr
nsub,1,1,1
time,1.
outres,erase
outres,all,none
outres,nsol,all,
outres,rsol,all
outres,eangl,all
outres,etmp,all
outres,veng,all
outres,strs,all,
outres,epel,all,
outres,eppl,all,
outres,cont,all,
! *********** WB SOLVE COMMAND ***********
! check interactive state
*get,ANSINTER_,active,,int
*if,ANSINTER_,ne,0,then
/eof
*endif
solve
/com *************** Write FE CONNECTORS ********* 
CEWRITE,file,ce,,INTE
/com,****************************************************
/com,*************** FINISHED SOLVE FOR LS 1 *************
fini
*get,_wallasol,active,,time,wall
/nopr
*get,_numnode,node,0,count
*get,_numelem,elem,0,count
*get, _MAXELEMNUM, elem, 0, NUM, MAX
*get, _MAXNODENUM, node, 0, NUM, MAX,,,INTERNAL
*get, _MAXELEMTYPE, etyp, 0, NUM, MAX
*get, _MAXREALCONST, rcon, 0, NUM, MAX
*get,_NSOLTHREADS,active,0,ntfs
*get,_NSOLPROCESSES,active,0,npfs
/gopr
/post1
xmlo,ENCODING,ISO-8859-1
xmlo,parm
/xml,parm,xml
fini
/gopr
*get,_walldone,active,,time,wall
_preptime=(_wallbsol-_wallstrt)*3600
_solvtime=(_wallasol-_wallbsol)*3600
_posttime=(_walldone-_wallasol)*3600
_totaltim=(_walldone-_wallstrt)*3600
*get,_dlbratio,active,0,solu,dlbr
*get,_combtime,active,0,solu,comb
*get,_ssmode,active,0,solu,ssmm
*get,_ndofs,active,0,solu,ndof
*get,_sol_end_time,active,0,set,time
*if,_sol_end_time,eq,1.000000,then
/fclean				!clean distributed files
*endif
/com,--- Total number of nodes = %_numnode%
/com,--- Total number of elements = %_numelem%
/com,--- Element load balance ratio = %_dlbratio%
/com,--- Time to combine distributed files = %_combtime%
/com,--- Sparse memory mode = %_ssmode%
/com,--- Number of DOF = %_ndofs%
/wb,file,end               ! done with WB generated input
