/batch
/config,noeldb,1     ! force off writing results to database
*get,_wallstrt,active,,time,wall
! ANSYS input file written by Workbench version 2026 R1
! File used for geometry attach: F:\CoME\Forth Semester\Practice FEM\Git_upload\06_Dynamic_Analysis\3_transient_analysis\06_3_ii_four_bar_mechanism\ansys\project_files\four_bar_mechanism_files\dp0\Geom\DM\Geom.agdb
/title,four_bar_mechanism--Transient (B5)
! ****** Begin Custom Load Command Snippet ******
/COM, ACT Extensions:
/COM,     LSDYNA, 2026.1
/COM,     5f463412-bd3e-484b-87e7-cbc0a665e474, wbex
/COM,     ANSYSMotion, 2026.1
/COM,     20180725-3f81-49eb-9f31-41364844c769, wbex
! ****** End   Custom Load Command Snippet ******
*DIM,_wb_ProjectScratch_dir,string,248
_wb_ProjectScratch_dir(1) = 'F:\CoME\Forth Semester\Practice FEM\Git_upload\06_Dynamic_Analysis\3_transient_analysis\06_3_ii_four_bar_mechanism\ansys\project_files\_ProjectScratch\Scr451E\'
*DIM,_wb_SolverFiles_dir,string,248
_wb_SolverFiles_dir(1) = 'F:\CoME\Forth Semester\Practice FEM\Git_upload\06_Dynamic_Analysis\3_transient_analysis\06_3_ii_four_bar_mechanism\ansys\project_files\four_bar_mechanism_files\dp0\SYS\MECH\'
*DIM,_wb_userfiles_dir,string,248
_wb_userfiles_dir(1) = 'F:\CoME\Forth Semester\Practice FEM\Git_upload\06_Dynamic_Analysis\3_transient_analysis\06_3_ii_four_bar_mechanism\ansys\project_files\four_bar_mechanism_files\user_files\'
/com,--- Data in consistent NMM units. See Solving Units in the help system for more information.
/units,MPA
/nopr
/wb,file,start              !  signify a WB generated input file
/prep7
! Turn off shape checking because checks already performed inside WB mesher.
! See help system for more information.
SHPP,OFF,,NOWARN
/nolist
etcon,set             ! allow ANSYS to choose best KEYOP's for 180x elements, resets any applicable keyopt to MAPDL defaults
/com,*********** Send User Defined Coordinate System(s) ***********
local,12,0,-7.49999983236194,-457.478000421359,164.537228199074,0.,0.,-90.
local,13,0,-24.9999999068677,-394.999999999958,2.75418576833886e-010,0.,0.,-90.
local,14,0,24.5000010048538,395.,0.,0.,0.,90.
local,15,0,4.99999988824129,-36.7869106836579,324.283924612665,0.,0.,-90.
csys,0
/com,*********** Nodes for the whole assembly ***********
nblock,3,,3107
(1i9,3e20.9e3)
        1    -1.500000000E+01    -4.020115296E+02    -2.662414790E+00
        2    -3.500000000E+01    -4.020115296E+02    -2.662414790E+00
        3    -2.166666667E+01    -4.020115296E+02    -2.662414790E+00
        4    -2.833333333E+01    -4.020115296E+02    -2.662414790E+00
        5    -1.500000000E+01    -3.879884704E+02     2.662414791E+00
        6    -1.500000000E+01    -4.008114836E+02     4.740955367E+00
        7    -1.500000000E+01    -3.937999540E+02     7.403370158E+00
        8    -3.500000000E+01    -3.879884704E+02     2.662414791E+00
        9    -2.166666667E+01    -3.879884704E+02     2.662414791E+00
       10    -2.833333333E+01    -3.879884704E+02     2.662414791E+00
       11    -3.500000000E+01    -4.008114836E+02     4.740955367E+00
       12    -3.500000000E+01    -3.937999540E+02     7.403370158E+00
       13    -1.500000000E+01    -3.891885164E+02    -4.740955367E+00
       14    -1.500000000E+01    -3.962000460E+02    -7.403370157E+00
       15    -3.500000000E+01    -3.891885164E+02    -4.740955367E+00
       16    -3.500000000E+01    -3.962000460E+02    -7.403370157E+00
       17     0.000000000E+00    -4.644895300E+02     1.618748134E+02
       18    -1.500000000E+01    -4.644895300E+02     1.618748134E+02
       19    -7.500000000E+00    -4.644895300E+02     1.618748134E+02
       20     0.000000000E+00    -4.504664708E+02     1.671996430E+02
! ... 2806 like lines cut
/com,*********** Nodes for all Remote Points ***********
nblock,3
(1i9,3e20.9e3)
     2826    -7.499999832E+00    -4.574780004E+02     1.645372282E+02
     2827    -7.499999832E+00    -4.574780004E+02     1.645372282E+02
     2828    -2.499999991E+01    -3.950000000E+02     2.754185768E-10
     2829    -2.499999991E+01    -3.950000000E+02     2.754185768E-10
     2830     2.450000100E+01     3.950000000E+02     0.000000000E+00
     2831     2.450000100E+01     3.950000000E+02     0.000000000E+00
     2832     4.999999888E+00    -3.678691068E+01     3.242839246E+02
     2833     4.999999888E+00    -3.678691068E+01     3.242839246E+02
-1
/wb,elem,start            !  set before creation of elements
/com,*********** Elements for Body 1 'input' ***********
et,1,187
MAT,1 $ TYPE,1 $ REAL,1 $ SECNUM,1 $ ESYS,0    ! ELEMNODES = 10
eblock,21,COMPACT,,411
(21i9)
        1       37      105      144      138      421      731      426      425      729      812
        2       37      144      114      138      426      760      423      425      812      759
        3      114      144      136      138      760      810      758      759      812      808
        4      105      136      144      138      728      810      731      729      808      812
        5       37      108      144      105      422      744      426      421      725      731
        6      105      108      144      135      725      744      731      727      742      807
        7       37      144      108      133      426      744      422      424      802      741
        8       37      114      144      133      423      760      426      424      757      802
        9      120      136      144      135      776      810      778      775      804      807
       10      108      144      120      133      744      778      740      741      802      774
       11      114      120      144      133      756      778      760      757      774      802
       12      114      144      120      136      760      778      756      758      810      776
       13       13      143       36      130      245      415      235      242      798      414
       14       13      104      143      120      238      724      245      240      722      777
       15       13       36      143      104      235      415      245      238      413      724
       16       34      143      104      133      408      724      406      407      801      723
       17      104      143      120      133      724      777      722      723      801      774
       18       34      143       36      104      408      415      404      406      724      413
       19       31      143      108      135      391      743      386      389      806      742
       20       31      130      143      135      388      798      391      389      797      806
! ... 392 like lines cut
secnum,1    ! reset the section ID to default
! Material Id = {B10E69BA-3015-4DC3-8B12-583DBC8CBDF9}
/com,*********** Elements for Body 2 'output' ***********
et,2,187
MAT,2 $ TYPE,2 $ REAL,2 $ SECNUM,2 $ ESYS,0    ! ELEMNODES = 10
eblock,21,COMPACT,,438
(21i9)
      412      933      987      976      986     1606     1736     1603     1605     1744     1735
      413      887      976      987      986     1443     1736     1445     1444     1735     1744
      414      836      987      872      976     1153     1382     1146     1151     1736     1381
      415      836      933      987      976     1149     1606     1153     1151     1603     1736
      416      838      987      933      986     1168     1606     1165     1167     1744     1605
      417      872      987      887      976     1382     1445     1378     1381     1736     1443
      418      834      987      929      873     1136     1591     1134     1133     1388     1384
      419      873      929      959      987     1384     1589     1386     1388     1591     1697
      420      834      987      836      933     1136     1153     1129     1135     1606     1149
      421      834      872      836      987     1132     1146     1129     1136     1382     1153
      422      838      959      987      986     1166     1697     1168     1167     1696     1744
      423      887      987      959      986     1445     1697     1442     1444     1744     1696
      424      838      987      959      929     1168     1697     1166     1164     1591     1589
      425      834      987      838      929     1136     1168     1130     1134     1591     1164
      426      872      959      987      873     1380     1697     1382     1377     1386     1388
      427      834      872      987      873     1132     1382     1136     1133     1377     1388
      428      834      838      987      933     1130     1168     1136     1135     1165     1606
      429      872      987      959      887     1382     1697     1380     1378     1445     1442
      430      840      855      986      976     1177     1275     1184     1182     1274     1735
      431      840      986      933      976     1184     1605     1180     1182     1735     1603
! ... 419 like lines cut
secnum,1    ! reset the section ID to default
! Material Id = {20C03509-CAF9-4D11-9F87-5D122F2089E5}
/com,*********** Elements for Body 3 'coupler' ***********
et,3,187
MAT,3 $ TYPE,3 $ REAL,3 $ SECNUM,3 $ ESYS,0    ! ELEMNODES = 10
eblock,21,COMPACT,,501
(21i9)
      850     1750     1931     1947     1946     1994     2813     1996     1995     2812     2825
      851     1750     1752     1947     1931     1989     2015     1996     1994     2012     2813
      852     1904     1947     1929     1946     2722     2808     2720     2721     2825     2807
      853     1929     1947     1931     1946     2808     2813     2806     2807     2825     2812
      854     1750     1947     1904     1946     1996     2722     1993     1995     2825     2721
      855     1752     1929     1947     1931     2010     2808     2015     2012     2806     2813
      856     1748     1750     1752     1947     1973     1989     1974     1980     1996     2015
      857     1748     1904     1750     1947     1977     1993     1973     1980     2722     1996
      858     1905     1930     1947     1937     2723     2811     2725     2724     2810     2820
      859     1748     1905     1947     1937     1978     2725     1980     1979     2724     2820
      860     1748     1947     1752     1937     1980     2015     1974     1979     2820     2014
      861     1752     1947     1930     1937     2015     2811     2011     2014     2820     2810
      862     1903     1947     1905     1930     2719     2725     2715     2718     2811     2723
      863     1748     1903     1947     1905     1976     2719     1980     1978     2715     2725
      864     1752     1947     1929     1930     2015     2808     2010     2011     2811     2805
      865     1903     1904     1947     1929     2714     2722     2719     2717     2720     2808
      866     1748     1904     1947     1903     1977     2722     1980     1976     2714     2719
      867     1903     1929     1947     1930     2717     2808     2719     2718     2805     2811
      868     1750     1754     1946     1902     1990     2028     1995     1992     2024     2713
      869     1754     1917     1946     1902     2026     2767     2028     2024     2711     2713
! ... 482 like lines cut
secnum,1    ! reset the section ID to default
! Material Id = {5CB05E89-8AF6-46F9-9204-A01AEEACC69F}
/wb,elem,end               !  done creating elements
toffst,273.15,      ! Temperature offset from absolute zero
/com,*********** Set Reference Temperature ***********
tref,22.
/wb,mat,start              !  starting to send materials
/com,*********** Send Materials ***********
Temperature = 'TEMP' ! Temperature
MP,DENS,1,7.85e-09,	! tonne mm^-3
MP,ALPX,1,1.2e-05,	! C^-1
MP,C,1,434000000,	! mm^2 s^-2 C^-1
MP,KXX,1,60.5,	! tonne mm s^-3 C^-1
MP,RSVX,1,0.00017,	! ohm mm
MP,EX,1,200000,	! tonne s^-2 mm^-1
MP,NUXY,1,0.3,
MP,MURX,1,10000,
MP,UVID,1,e6a87136-1f4d-4826-957a-334df7653c21
MP,UMID,1,59002a79-71c2-428e-906b-55d7dbee100e

Temperature = 'TEMP' ! Temperature
MP,DENS,2,7.85e-09,	! tonne mm^-3
MP,ALPX,2,1.2e-05,	! C^-1
MP,C,2,434000000,	! mm^2 s^-2 C^-1
MP,KXX,2,60.5,	! tonne mm s^-3 C^-1
MP,RSVX,2,0.00017,	! ohm mm
MP,EX,2,200000,	! tonne s^-2 mm^-1
MP,NUXY,2,0.3,
MP,MURX,2,10000,
MP,UVID,2,e6a87136-1f4d-4826-957a-334df7653c21
MP,UMID,2,59002a79-71c2-428e-906b-55d7dbee100e

Temperature = 'TEMP' ! Temperature
MP,DENS,3,7.85e-09,	! tonne mm^-3
MP,ALPX,3,1.2e-05,	! C^-1
MP,C,3,434000000,	! mm^2 s^-2 C^-1
MP,KXX,3,60.5,	! tonne mm s^-3 C^-1
MP,RSVX,3,0.00017,	! ohm mm
MP,EX,3,200000,	! tonne s^-2 mm^-1
MP,NUXY,3,0.3,
MP,MURX,3,10000,
MP,UVID,3,e6a87136-1f4d-4826-957a-334df7653c21
MP,UMID,3,59002a79-71c2-428e-906b-55d7dbee100e

/wb,mat,end                !  done sending materials
!************************* Model Summary ********************
! input,	Structural Steel,	matid,	1
! output,	Structural Steel,	matid,	2
! coupler,	Structural Steel,	matid,	3
!************************* End Model Summary ********************
! get the diagonal of the bounding box. Needed later for other things
*get,_xmin,node,,mnloc,x
*get,_ymin,node,,mnloc,y
*get,_zmin,node,,mnloc,z
*get,_xmax,node,,mxloc,x
*get,_ymax,node,,mxloc,y
*get,_zmax,node,,mxloc,z
_ASMDIAG=(_xmax-_xmin)*(_xmax-_xmin)+(_ymax-_ymin)*(_ymax-_ymin)+(_zmax-_zmin)*(_zmax-_zmin)
_ASMDIAG=SQRT(_ASMDIAG)
/wb,contact,start          !  starting to send contact
/wb,contact,end            !  done creating contacts
/golist
/wb,load,start             !  starting to send loads
/com,*********** Create Remote Point "Internal Remote Point 2" ***********
! -------- Remote Point Used by "Revolute - Ground To input" --------
*set,tid,5
*set,cid,4
et,cid,174
et,tid,170
keyo,tid,2,1               ! Don't fix the pilot node
keyo,tid,4,0               ! Activate all DOF's due to large deformation
keyo,cid,12,5              ! Bonded Contact 
keyo,cid,4,1               ! Deformable RBE3 style load
keyo,cid,2,2               ! MPC style contact
MAT,4 $ TYPE,4 $ REAL,4 $ SECNUM,4 $ ESYS,0    ! ELEMNODES = 8
eblock,21,COMPACT,,30
(21i9)
     2229       17       19       28       28      265      283       28      267
     2230       19       84       28       28      285      361       28      283
     2231       27       29       85       85      349      369       85      353
     2232       28       83       27       27      360      352       27      348
     2233       27       85       20       20      353      297       20      294
     2234       27       83       29       29      352      368       29      349
     2235       30       84       18       18      376      278       18      275
     2236       84       19       18       18      285      273       18      278
     2237       24       20       85       85      293      297       85      327
     2238       24       85       23       23      327      324       23      319
     2239       30       29       83       83      365      368       83      375
     2240       29       23       85       85      321      324       85      369
     2241       28       30       83       83      357      375       83      360
     2242       28       84       30       30      361      376       30      357
     2243       87       19       21       21      286      282       21      305
     2244       19       17       21       21      265      266       21      282
     2245       22       88       26       26      313      343       26      309
     2246       86       21       22       22      304      300       22      312
     2247       20       24      145      145      293      331      145      299
     2248       22       26       86       86      309      342       86      312
! ... 11 like lines cut
secnum,1    ! reset the section ID to default
*set,_npilot,2827
_npilot63=_npilot
type,tid
mat ,cid
real,cid
tshape,pilo
en,2259,_npilot
tshape
csys,12
nrot,2827
csys,0
/com,*********** Create Remote Point "Internal Remote Point 3" ***********
! -------- Remote Point Used by "Revolute - input To coupler" --------
*set,tid,7
*set,cid,6
et,cid,174
et,tid,170
keyo,tid,2,1               ! Don't fix the pilot node
keyo,tid,4,0               ! Activate all DOF's due to large deformation
keyo,cid,12,5              ! Bonded Contact 
keyo,cid,4,1               ! Deformable RBE3 style load
keyo,cid,2,2               ! MPC style contact
MAT,6 $ TYPE,6 $ REAL,6 $ SECNUM,6 $ ESYS,0    ! ELEMNODES = 8
eblock,21,COMPACT,,40
(21i9)
     2260        3        1       94       94      146      152       94      165
     2261        3       94       95       95      165      688       95      166
     2262       94        1        6        6      152      147        6      185
     2263       96        6        7        7      186      183        7      198
     2264        4        3       95       95      162      166       95      172
     2265        4       95       11       11      172      225       11      169
     2266        2        4       11       11      157      169       11      158
     2267        5        9        7        7      176      195        7      175
     2268        9       10       97       97      212      221       97      215
     2269        9       97        7        7      215      199        7      195
     2270       97       10       12       12      221      218       12      229
     2271       10        8       12       12      207      208       12      218
     2272       96        7       97       97      198      199       97      696
     2273       95       96       98       98      692      697       98      693
     2274       95       98       11       11      693      226       11      225
     2275       98       96       97       97      697      696       97      700
     2276       98       97       12       12      700      229       12      230
     2277       98       12       11       11      230      224       11      226
     2278        6       96       94       94      186      689       94      185
     2279       96       95       94       94      692      688       94      689
! ... 21 like lines cut
secnum,1    ! reset the section ID to default
*set,_npilot,2828
_npilot69=_npilot
type,tid
mat ,cid
real,cid
tshape,pilo
en,2300,_npilot
tshape
csys,13
nrot,2828
csys,0
/com,*********** Create Remote Point "Internal Remote Point 4" ***********
! -------- Remote Point Used by "Revolute - input To coupler" --------
*set,tid,9
*set,cid,8
et,cid,174
et,tid,170
keyo,tid,2,1               ! Don't fix the pilot node
keyo,tid,4,0               ! Activate all DOF's due to large deformation
keyo,cid,12,5              ! Bonded Contact 
keyo,cid,4,1               ! Deformable RBE3 style load
keyo,cid,2,2               ! MPC style contact
MAT,8 $ TYPE,8 $ REAL,8 $ SECNUM,8 $ ESYS,0    ! ELEMNODES = 8
eblock,21,COMPACT,,20
(21i9)
     2301     1750     1754     1902     1902     1990     2024     1902     1992
     2302     1750     1752     1754     1754     1989     2006     1754     1990
     2303     1747     1745     1749     1749     1948     1949     1749     1964
     2304     1746     1747     1753     1753     1955     1965     1753     1956
     2305     1748     1752     1750     1750     1974     1989     1750     1973
     2306     1752     1751     1754     1754     1997     1998     1754     2006
     2307     1749     1750     1902     1902     1981     1992     1902     1985
     2308     1749     1902     1753     1753     1985     2019     1753     1982
     2309     1754     1753     1902     1902     2016     2019     1902     2024
     2310     1747     1749     1753     1753     1964     1982     1753     1965
     2311     1747     1746     1758     1758     1955     1957     1758     1967
     2312     1745     1747     1756     1756     1948     1966     1756     1950
     2313     1752     1748     1755     1755     1974     1975     1755     2007
     2314     1751     1752     1757     1757     1997     2008     1757     1999
     2315     1755     1756     1901     1901     2029     2041     1901     2033
     2316     1756     1758     1901     1901     2038     2054     1901     2041
     2317     1758     1757     1901     1901     2045     2048     1901     2054
     2318     1747     1758     1756     1756     1967     2038     1756     1966
     2319     1755     1901     1757     1757     2033     2048     1757     2030
     2320     1752     1755     1757     1757     2007     2030     1757     2008
-1
secnum,1    ! reset the section ID to default
*set,_npilot,2829
_npilot70=_npilot
type,tid
mat ,cid
real,cid
tshape,pilo
en,2321,_npilot
tshape
csys,13
nrot,2829
csys,0
/com,*********** Create Remote Point "Internal Remote Point 5" ***********
! -------- Remote Point Used by "Revolute - coupler To output" --------
*set,tid,11
*set,cid,10
et,cid,174
et,tid,170
keyo,tid,2,1               ! Don't fix the pilot node
keyo,tid,4,0               ! Activate all DOF's due to large deformation
keyo,cid,12,5              ! Bonded Contact 
keyo,cid,4,1               ! Deformable RBE3 style load
keyo,cid,2,2               ! MPC style contact
MAT,10 $ TYPE,10 $ REAL,10 $ SECNUM,10 $ ESYS,0    ! ELEMNODES = 8
eblock,21,COMPACT,,44
(21i9)
     2322     1770     1769     1896     1896     2137     2140     1896     2146
     2323     1769     1760     1762     1762     2067     2066     1762     2081
     2324     1771     1770     1897     1897     2143     2147     1897     2153
     2325     1766     1772     1768     1768     2117     2129     1768     2116
     2326     1772     1771     1898     1898     2150     2154     1898     2159
     2327     1896     1769     1762     1762     2140     2081     1762     2085
     2328     1898     1771     1897     1897     2154     2153     1897     2691
     2329     1898     1897     1900     1900     2691     2693     1900     2697
     2330     1772     1898     1768     1768     2159     2133     1768     2129
     2331     1761     1759     1764     1764     2056     2057     1764     2074
     2332     1762     1761     1899     1899     2073     2077     1899     2086
     2333     1767     1768     1900     1900     2123     2134     1900     2126
     2334     1898     1900     1768     1768     2697     2134     1768     2133
     2335     1900     1897     1899     1899     2693     2692     1899     2701
     2336     1900     1899     1765     1765     2701     2109     1765     2110
     2337     1899     1896     1762     1762     2687     2085     1762     2086
     2338     1764     1765     1899     1899     2098     2109     1899     2101
     2339     1764     1899     1761     1761     2101     2077     1761     2074
     2340     1765     1767     1900     1900     2106     2126     1900     2110
     2341     1763     1767     1765     1765     2090     2106     1765     2089
! ... 25 like lines cut
secnum,1    ! reset the section ID to default
*set,_npilot,2830
_npilot77=_npilot
type,tid
mat ,cid
real,cid
tshape,pilo
en,2366,_npilot
tshape
csys,14
nrot,2830
csys,0
/com,*********** Create Remote Point "Internal Remote Point 6" ***********
! -------- Remote Point Used by "Revolute - coupler To output" --------
*set,tid,13
*set,cid,12
et,cid,174
et,tid,170
keyo,tid,2,1               ! Don't fix the pilot node
keyo,tid,4,0               ! Activate all DOF's due to large deformation
keyo,cid,12,5              ! Bonded Contact 
keyo,cid,4,1               ! Deformable RBE3 style load
keyo,cid,2,2               ! MPC style contact
MAT,12 $ TYPE,12 $ REAL,12 $ SECNUM,12 $ ESYS,0    ! ELEMNODES = 8
eblock,21,COMPACT,,30
(21i9)
     2367      831      833      842      842     1102     1120      842     1104
     2368      833      928      842      842     1122     1198      842     1120
     2369      841      843      929      929     1186     1207      929     1190
     2370      842      927      841      841     1197     1189      841     1185
     2371      841      927      843      843     1189     1206      843     1186
     2372      844      928      832      832     1213     1116      832     1112
     2373      841      929      834      834     1190     1134      834     1131
     2374      928      833      832      832     1122     1110      832     1116
     2375      838      834      929      929     1130     1134      929     1164
     2376      838      929      837      837     1164     1159      837     1154
     2377      843      837      929      929     1156     1159      929     1207
     2378      844      843      927      927     1204     1206      927     1212
     2379      842      844      927      927     1195     1212      927     1197
     2380      842      928      844      844     1198     1213      844     1195
     2381      833      930      931      931     1123     1592      931     1124
     2382      833      831      930      930     1102     1107      930     1123
     2383      835      931      930      930     1141     1592      930     1140
     2384      835      932      931      931     1142     1594      931     1141
     2385      930      831      835      835     1107     1103      835     1140
     2386      839      931      932      932     1172     1594      932     1173
! ... 11 like lines cut
secnum,1    ! reset the section ID to default
*set,_npilot,2831
_npilot78=_npilot
type,tid
mat ,cid
real,cid
tshape,pilo
en,2397,_npilot
tshape
csys,14
nrot,2831
csys,0
/com,*********** Create Remote Point "Internal Remote Point 8" ***********
! -------- Remote Point Used by "Revolute - Ground To output" --------
*set,tid,15
*set,cid,14
et,cid,174
et,tid,170
keyo,tid,2,1               ! Don't fix the pilot node
keyo,tid,4,0               ! Activate all DOF's due to large deformation
keyo,cid,12,5              ! Bonded Contact 
keyo,cid,4,1               ! Deformable RBE3 style load
keyo,cid,2,2               ! MPC style contact
MAT,14 $ TYPE,14 $ REAL,14 $ SECNUM,14 $ ESYS,0    ! ELEMNODES = 8
eblock,21,COMPACT,,36
(21i9)
     2398      817      815      820      820      988      989      820     1003
     2399      818      817      938      938     1002     1006      938     1012
     2400      819      823      821      821     1015     1036      821     1014
     2401      823      824      939      939     1052     1061      939     1055
     2402      816      818      825      825      997     1009      825      998
     2403      824      822      826      826     1047     1048      826     1058
     2404      823      939      821      821     1055     1039      821     1036
     2405      939      824      826      826     1061     1058      826     1068
     2406      818      938      825      825     1012     1064      825     1009
     2407      938      817      820      820     1006     1003      820     1028
     2408      820      821      940      940     1025     1040      940     1029
     2409      820      940      938      938     1029     1619      938     1028
     2410      938      940      941      941     1619     1627      941     1620
     2411      938      941      825      825     1620     1065      825     1064
     2412      825      941      826      826     1065     1069      826     1063
     2413      826      941      939      939     1069     1624      939     1068
     2414      939      941      940      940     1624     1627      940     1623
     2415      939      940      821      821     1623     1040      821     1039
     2416      817      818      934      934     1002     1011      934     1005
     2417      815      817      828      828      988     1004      828      990
! ... 17 like lines cut
secnum,1    ! reset the section ID to default
*set,_npilot,2833
_npilot86=_npilot
type,tid
mat ,cid
real,cid
tshape,pilo
en,2434,_npilot
tshape
csys,15
nrot,2833
csys,0
/com,*********** Create Joint "Revolute - Ground To input" ***********
/com,            Real Constant Set For Above Joint Is 16
! Joint Element Type Declaration and Definition using MPC184
*set,_jid,16
et,_jid,184
keyo,_jid,1,6           ! Revolute Joint
keyo,_jid,4,1           ! Z Axis is revolute axis
sectype,_jid, joint, revo, _wbjoint
secjoint,,12,12
mat,_jid
real,_jid
type,_jid
secnum,_jid
en,2217,,2827        ! body to ground joint
/com,*********** Create Joint "Revolute - input To coupler" ***********
/com,            Real Constant Set For Above Joint Is 17
! Joint Element Type Declaration and Definition using MPC184
*set,_jid,17
et,_jid,184
keyo,_jid,1,6           ! Revolute Joint
keyo,_jid,4,1           ! Z Axis is revolute axis
sectype,_jid, joint, revo, _wbjoint
secjoint,,13,13
mat,_jid
real,_jid
type,_jid
secnum,_jid
en,2218,2828,2829      ! body to body joint
/com,*********** Create Joint "Revolute - coupler To output" ***********
/com,            Real Constant Set For Above Joint Is 18
! Joint Element Type Declaration and Definition using MPC184
*set,_jid,18
et,_jid,184
keyo,_jid,1,6           ! Revolute Joint
keyo,_jid,4,1           ! Z Axis is revolute axis
sectype,_jid, joint, revo, _wbjoint
secjoint,,14,14
mat,_jid
real,_jid
type,_jid
secnum,_jid
en,2219,2830,2831      ! body to body joint
/com,*********** Create Joint "Revolute - Ground To output" ***********
/com,            Real Constant Set For Above Joint Is 19
! Joint Element Type Declaration and Definition using MPC184
*set,_jid,19
et,_jid,184
keyo,_jid,1,6           ! Revolute Joint
keyo,_jid,4,1           ! Z Axis is revolute axis
sectype,_jid, joint, revo, _wbjoint
secjoint,,15,15
mat,_jid
real,_jid
type,_jid
secnum,_jid
en,2220,,2833        ! body to ground joint
/com,*********** Create Joint Drivers **********

*DIM,_loadvari91,TABLE,3,1,1,TIME, , , 0
! Time values
*TAXIS,_loadvari91(1),1,0.,1.,45.
! Load values
_loadvari91(1,1,1) = 1.74532925199433e-002
_loadvari91(2,1,1) = 1.74532925199433e-002
_loadvari91(3,1,1) = 6.28318530717959


/gst,on,on
fini
*get,_numnode,node,0,count
*get,_numelem,elem,0,count
*get, _MAXELEMNUM, elem, 0, NUM, MAX
*get, _MAXNODENUM, node, 0, NUM, MAX
*get, _MAXELEMTYPE, etyp, 0, NUM, MAX
*get, _MAXREALCONST, rcon, 0, NUM, MAX
/go
/wb,load,end               !  done creating loads
/com,--- Number of total nodes = %_numnode%
/com,--- Number of contact elements = 200
/com,--- Number of spring elements = 0
/com,--- Number of bearing elements = 0
/com,--- Number of solid elements = 1350
/com,--- Number of condensed parts = 0
/com,--- Number of total elements = %_numelem%
*get,_wallbsol,active,,time,wall
/com,****************************************************************************
/com,*************************    SOLUTION       ********************************
/com,****************************************************************************
/solu
antype,4                   ! transient analysis
nlgeom,on                  ! Turn on Large Deformation Effects
kbc,1                      ! stepped BC's
_thickRatio=  0     ! Ratio of thick parts in the model
eqsl,sparse,,,,,1
cntr,print,1               ! print out contact info and also make no initial contact an error
cncheck,dmp		!	Enable program controlled contact splitting for distributed memory parallel run
dmpoption,emat,no             ! Don't combine emat file for DANSYS
dmpoption,esav,no             ! Don't combine esav file for DANSYS
trnopt,full,,,,,hht        ! HHT time integration method
tintp, mosp			! Choose transient integration settings for moderate speed application
nldiag,cont,iter           ! print out contact info each equilibrium iteration
rescontrol,define,last,last,,dele	   ! Program Controlled
/com,****************************************************
/com,******************* SOLVE FOR LS 1 OF 45 ****************
/nopr
/gopr
esel,s,type,,16
dj,all,rotz,%_loadvari91%
esel,all
autots,on                   ! User turned on automatic time stepping
deltim,0.5,0.5,0.5,OFF
time,1.
timint,on                  ! Turn on time integration effects
outres,erase
outres,all,none
outres,nsol,all,
outres,rsol,all
outres,eangl,all
outres,etmp,all
outres,veng,all
outres,strs,all,
outres,epel,all,
outres,eppl,all,
outres,cont,all,
outres,v,all,
outres,a,all,
/nopr
esel,s,type,,16
esel,a,type,,17,19
cm,_elmisc,elem
esel,all
/gopr
outres,misc,all,_elmisc
! *********** WB SOLVE COMMAND ***********
! check interactive state
*get,ANSINTER_,active,,int
*if,ANSINTER_,ne,0,then
/eof
*endif
solve
/com *************** Write FE CONNECTORS ********* 
CEWRITE,file,ce,,INTE
/com,****************************************************
/com,*************** FINISHED SOLVE FOR LS 1 *************
/com,****************************************************
/com,******************* SOLVE FOR LS 2 OF 45 ****************
/nopr
/gopr
autots,on                   ! User turned on automatic time stepping
deltim,0.5,0.5,0.5,OFF
time,2.
timint,on                  ! Turn on time integration effects
outres,erase
outres,all,none
outres,nsol,all,
outres,rsol,all
outres,eangl,all
outres,etmp,all
outres,veng,all
outres,strs,all,
outres,epel,all,
outres,eppl,all,
outres,cont,all,
outres,v,all,
outres,a,all,
outres,misc,all,_elmisc
solve
/com,****************************************************
/com,*************** FINISHED SOLVE FOR LS 2 *************
/com,****************************************************
/com,******************* SOLVE FOR LS 3 OF 45 ****************
/nopr
/gopr
autots,on                   ! User turned on automatic time stepping
deltim,0.5,0.5,0.5,OFF
time,3.
timint,on                  ! Turn on time integration effects
outres,erase
outres,all,none
outres,nsol,all,
outres,rsol,all
outres,eangl,all
outres,etmp,all
outres,veng,all
outres,strs,all,
outres,epel,all,
outres,eppl,all,
outres,cont,all,
outres,v,all,
outres,a,all,
outres,misc,all,_elmisc
solve
/com,****************************************************
/com,*************** FINISHED SOLVE FOR LS 3 *************
/com,****************************************************
/com,******************* SOLVE FOR LS 4 OF 45 ****************
/nopr
/gopr
autots,on                   ! User turned on automatic time stepping
deltim,0.5,0.5,0.5,OFF
time,4.
timint,on                  ! Turn on time integration effects
outres,erase
outres,all,none
outres,nsol,all,
outres,rsol,all
outres,eangl,all
outres,etmp,all
outres,veng,all
outres,strs,all,
outres,epel,all,
outres,eppl,all,
outres,cont,all,
outres,v,all,
outres,a,all,
outres,misc,all,_elmisc
solve
/com,****************************************************
/com,*************** FINISHED SOLVE FOR LS 4 *************
/com,****************************************************
/com,******************* SOLVE FOR LS 5 OF 45 ****************
/nopr
/gopr
autots,on                   ! User turned on automatic time stepping
deltim,0.5,0.5,0.5,OFF
time,5.
timint,on                  ! Turn on time integration effects
outres,erase
outres,all,none
outres,nsol,all,
outres,rsol,all
outres,eangl,all
outres,etmp,all
outres,veng,all
outres,strs,all,
outres,epel,all,
outres,eppl,all,
outres,cont,all,
outres,v,all,
outres,a,all,
outres,misc,all,_elmisc
solve
/com,****************************************************
/com,*************** FINISHED SOLVE FOR LS 5 *************
/com,****************************************************
/com,******************* SOLVE FOR LS 6 OF 45 ****************
/nopr
/gopr
autots,on                   ! User turned on automatic time stepping
deltim,0.5,0.5,0.5,OFF
time,6.
timint,on                  ! Turn on time integration effects
outres,erase
outres,all,none
outres,nsol,all,
outres,rsol,all
outres,eangl,all
outres,etmp,all
outres,veng,all
outres,strs,all,
outres,epel,all,
outres,eppl,all,
outres,cont,all,
outres,v,all,
outres,a,all,
outres,misc,all,_elmisc
solve
/com,****************************************************
/com,*************** FINISHED SOLVE FOR LS 6 *************
/com,****************************************************
/com,******************* SOLVE FOR LS 7 OF 45 ****************
/nopr
/gopr
autots,on                   ! User turned on automatic time stepping
deltim,0.5,0.5,0.5,OFF
time,7.
timint,on                  ! Turn on time integration effects
outres,erase
outres,all,none
outres,nsol,all,
outres,rsol,all
outres,eangl,all
outres,etmp,all
outres,veng,all
outres,strs,all,
outres,epel,all,
outres,eppl,all,
outres,cont,all,
outres,v,all,
outres,a,all,
outres,misc,all,_elmisc
solve
/com,****************************************************
/com,*************** FINISHED SOLVE FOR LS 7 *************
/com,****************************************************
/com,******************* SOLVE FOR LS 8 OF 45 ****************
/nopr
/gopr
autots,on                   ! User turned on automatic time stepping
deltim,0.5,0.5,0.5,OFF
time,8.
timint,on                  ! Turn on time integration effects
outres,erase
outres,all,none
outres,nsol,all,
outres,rsol,all
outres,eangl,all
outres,etmp,all
outres,veng,all
outres,strs,all,
outres,epel,all,
outres,eppl,all,
outres,cont,all,
outres,v,all,
outres,a,all,
outres,misc,all,_elmisc
solve
/com,****************************************************
/com,*************** FINISHED SOLVE FOR LS 8 *************
/com,****************************************************
/com,******************* SOLVE FOR LS 9 OF 45 ****************
/nopr
/gopr
autots,on                   ! User turned on automatic time stepping
deltim,0.5,0.5,0.5,OFF
time,9.
timint,on                  ! Turn on time integration effects
outres,erase
outres,all,none
outres,nsol,all,
outres,rsol,all
outres,eangl,all
outres,etmp,all
outres,veng,all
outres,strs,all,
outres,epel,all,
outres,eppl,all,
outres,cont,all,
outres,v,all,
outres,a,all,
outres,misc,all,_elmisc
solve
/com,****************************************************
/com,*************** FINISHED SOLVE FOR LS 9 *************
/com,****************************************************
/com,******************* SOLVE FOR LS 10 OF 45 ****************
/nopr
/gopr
autots,on                   ! User turned on automatic time stepping
deltim,0.5,0.5,0.5,OFF
time,10.
timint,on                  ! Turn on time integration effects
outres,erase
outres,all,none
outres,nsol,all,
outres,rsol,all
outres,eangl,all
outres,etmp,all
outres,veng,all
outres,strs,all,
outres,epel,all,
outres,eppl,all,
outres,cont,all,
outres,v,all,
outres,a,all,
outres,misc,all,_elmisc
solve
/com,****************************************************
/com,*************** FINISHED SOLVE FOR LS 10 *************
/com,****************************************************
/com,******************* SOLVE FOR LS 11 OF 45 ****************
/nopr
/gopr
autots,on                   ! User turned on automatic time stepping
deltim,0.5,0.5,0.5,OFF
time,11.
timint,on                  ! Turn on time integration effects
outres,erase
outres,all,none
outres,nsol,all,
outres,rsol,all
outres,eangl,all
outres,etmp,all
outres,veng,all
outres,strs,all,
outres,epel,all,
outres,eppl,all,
outres,cont,all,
outres,v,all,
outres,a,all,
outres,misc,all,_elmisc
solve
/com,****************************************************
/com,*************** FINISHED SOLVE FOR LS 11 *************
/com,****************************************************
/com,******************* SOLVE FOR LS 12 OF 45 ****************
/nopr
/gopr
autots,on                   ! User turned on automatic time stepping
deltim,0.5,0.5,0.5,OFF
time,12.
timint,on                  ! Turn on time integration effects
outres,erase
outres,all,none
outres,nsol,all,
outres,rsol,all
outres,eangl,all
outres,etmp,all
outres,veng,all
outres,strs,all,
outres,epel,all,
outres,eppl,all,
outres,cont,all,
outres,v,all,
outres,a,all,
outres,misc,all,_elmisc
solve
/com,****************************************************
/com,*************** FINISHED SOLVE FOR LS 12 *************
/com,****************************************************
/com,******************* SOLVE FOR LS 13 OF 45 ****************
/nopr
/gopr
autots,on                   ! User turned on automatic time stepping
deltim,0.5,0.5,0.5,OFF
time,13.
timint,on                  ! Turn on time integration effects
outres,erase
outres,all,none
outres,nsol,all,
outres,rsol,all
outres,eangl,all
outres,etmp,all
outres,veng,all
outres,strs,all,
outres,epel,all,
outres,eppl,all,
outres,cont,all,
outres,v,all,
outres,a,all,
outres,misc,all,_elmisc
solve
/com,****************************************************
/com,*************** FINISHED SOLVE FOR LS 13 *************
/com,****************************************************
/com,******************* SOLVE FOR LS 14 OF 45 ****************
/nopr
/gopr
autots,on                   ! User turned on automatic time stepping
deltim,0.5,0.5,0.5,OFF
time,14.
timint,on                  ! Turn on time integration effects
outres,erase
outres,all,none
outres,nsol,all,
outres,rsol,all
outres,eangl,all
outres,etmp,all
outres,veng,all
outres,strs,all,
outres,epel,all,
outres,eppl,all,
outres,cont,all,
outres,v,all,
outres,a,all,
outres,misc,all,_elmisc
solve
/com,****************************************************
/com,*************** FINISHED SOLVE FOR LS 14 *************
/com,****************************************************
/com,******************* SOLVE FOR LS 15 OF 45 ****************
/nopr
/gopr
autots,on                   ! User turned on automatic time stepping
deltim,0.5,0.5,0.5,OFF
time,15.
timint,on                  ! Turn on time integration effects
outres,erase
outres,all,none
outres,nsol,all,
outres,rsol,all
outres,eangl,all
outres,etmp,all
outres,veng,all
outres,strs,all,
outres,epel,all,
outres,eppl,all,
outres,cont,all,
outres,v,all,
outres,a,all,
outres,misc,all,_elmisc
solve
/com,****************************************************
/com,*************** FINISHED SOLVE FOR LS 15 *************
/com,****************************************************
/com,******************* SOLVE FOR LS 16 OF 45 ****************
/nopr
/gopr
autots,on                   ! User turned on automatic time stepping
deltim,0.5,0.5,0.5,OFF
time,16.
timint,on                  ! Turn on time integration effects
outres,erase
outres,all,none
outres,nsol,all,
outres,rsol,all
outres,eangl,all
outres,etmp,all
outres,veng,all
outres,strs,all,
outres,epel,all,
outres,eppl,all,
outres,cont,all,
outres,v,all,
outres,a,all,
outres,misc,all,_elmisc
solve
/com,****************************************************
/com,*************** FINISHED SOLVE FOR LS 16 *************
/com,****************************************************
/com,******************* SOLVE FOR LS 17 OF 45 ****************
/nopr
/gopr
autots,on                   ! User turned on automatic time stepping
deltim,0.5,0.5,0.5,OFF
time,17.
timint,on                  ! Turn on time integration effects
outres,erase
outres,all,none
outres,nsol,all,
outres,rsol,all
outres,eangl,all
outres,etmp,all
outres,veng,all
outres,strs,all,
outres,epel,all,
outres,eppl,all,
outres,cont,all,
outres,v,all,
outres,a,all,
outres,misc,all,_elmisc
solve
/com,****************************************************
/com,*************** FINISHED SOLVE FOR LS 17 *************
/com,****************************************************
/com,******************* SOLVE FOR LS 18 OF 45 ****************
/nopr
/gopr
autots,on                   ! User turned on automatic time stepping
deltim,0.5,0.5,0.5,OFF
time,18.
timint,on                  ! Turn on time integration effects
outres,erase
outres,all,none
outres,nsol,all,
outres,rsol,all
outres,eangl,all
outres,etmp,all
outres,veng,all
outres,strs,all,
outres,epel,all,
outres,eppl,all,
outres,cont,all,
outres,v,all,
outres,a,all,
outres,misc,all,_elmisc
solve
/com,****************************************************
/com,*************** FINISHED SOLVE FOR LS 18 *************
/com,****************************************************
/com,******************* SOLVE FOR LS 19 OF 45 ****************
/nopr
/gopr
autots,on                   ! User turned on automatic time stepping
deltim,0.5,0.5,0.5,OFF
time,19.
timint,on                  ! Turn on time integration effects
outres,erase
outres,all,none
outres,nsol,all,
outres,rsol,all
outres,eangl,all
outres,etmp,all
outres,veng,all
outres,strs,all,
outres,epel,all,
outres,eppl,all,
outres,cont,all,
outres,v,all,
outres,a,all,
outres,misc,all,_elmisc
solve
/com,****************************************************
/com,*************** FINISHED SOLVE FOR LS 19 *************
/com,****************************************************
/com,******************* SOLVE FOR LS 20 OF 45 ****************
/nopr
/gopr
autots,on                   ! User turned on automatic time stepping
deltim,0.5,0.5,0.5,OFF
time,20.
timint,on                  ! Turn on time integration effects
outres,erase
outres,all,none
outres,nsol,all,
outres,rsol,all
outres,eangl,all
outres,etmp,all
outres,veng,all
outres,strs,all,
outres,epel,all,
outres,eppl,all,
outres,cont,all,
outres,v,all,
outres,a,all,
outres,misc,all,_elmisc
solve
/com,****************************************************
/com,*************** FINISHED SOLVE FOR LS 20 *************
/com,****************************************************
/com,******************* SOLVE FOR LS 21 OF 45 ****************
/nopr
/gopr
autots,on                   ! User turned on automatic time stepping
deltim,0.5,0.5,0.5,OFF
time,21.
timint,on                  ! Turn on time integration effects
outres,erase
outres,all,none
outres,nsol,all,
outres,rsol,all
outres,eangl,all
outres,etmp,all
outres,veng,all
outres,strs,all,
outres,epel,all,
outres,eppl,all,
outres,cont,all,
outres,v,all,
outres,a,all,
outres,misc,all,_elmisc
solve
/com,****************************************************
/com,*************** FINISHED SOLVE FOR LS 21 *************
/com,****************************************************
/com,******************* SOLVE FOR LS 22 OF 45 ****************
/nopr
/gopr
autots,on                   ! User turned on automatic time stepping
deltim,0.5,0.5,0.5,OFF
time,22.
timint,on                  ! Turn on time integration effects
outres,erase
outres,all,none
outres,nsol,all,
outres,rsol,all
outres,eangl,all
outres,etmp,all
outres,veng,all
outres,strs,all,
outres,epel,all,
outres,eppl,all,
outres,cont,all,
outres,v,all,
outres,a,all,
outres,misc,all,_elmisc
solve
/com,****************************************************
/com,*************** FINISHED SOLVE FOR LS 22 *************
/com,****************************************************
/com,******************* SOLVE FOR LS 23 OF 45 ****************
/nopr
/gopr
autots,on                   ! User turned on automatic time stepping
deltim,0.5,0.5,0.5,OFF
time,23.
timint,on                  ! Turn on time integration effects
outres,erase
outres,all,none
outres,nsol,all,
outres,rsol,all
outres,eangl,all
outres,etmp,all
outres,veng,all
outres,strs,all,
outres,epel,all,
outres,eppl,all,
outres,cont,all,
outres,v,all,
outres,a,all,
outres,misc,all,_elmisc
solve
/com,****************************************************
/com,*************** FINISHED SOLVE FOR LS 23 *************
/com,****************************************************
/com,******************* SOLVE FOR LS 24 OF 45 ****************
/nopr
/gopr
autots,on                   ! User turned on automatic time stepping
deltim,0.5,0.5,0.5,OFF
time,24.
timint,on                  ! Turn on time integration effects
outres,erase
outres,all,none
outres,nsol,all,
outres,rsol,all
outres,eangl,all
outres,etmp,all
outres,veng,all
outres,strs,all,
outres,epel,all,
outres,eppl,all,
outres,cont,all,
outres,v,all,
outres,a,all,
outres,misc,all,_elmisc
solve
/com,****************************************************
/com,*************** FINISHED SOLVE FOR LS 24 *************
/com,****************************************************
/com,******************* SOLVE FOR LS 25 OF 45 ****************
/nopr
/gopr
autots,on                   ! User turned on automatic time stepping
deltim,0.5,0.5,0.5,OFF
time,25.
timint,on                  ! Turn on time integration effects
outres,erase
outres,all,none
outres,nsol,all,
outres,rsol,all
outres,eangl,all
outres,etmp,all
outres,veng,all
outres,strs,all,
outres,epel,all,
outres,eppl,all,
outres,cont,all,
outres,v,all,
outres,a,all,
outres,misc,all,_elmisc
solve
/com,****************************************************
/com,*************** FINISHED SOLVE FOR LS 25 *************
/com,****************************************************
/com,******************* SOLVE FOR LS 26 OF 45 ****************
/nopr
/gopr
autots,on                   ! User turned on automatic time stepping
deltim,0.5,0.5,0.5,OFF
time,26.
timint,on                  ! Turn on time integration effects
outres,erase
outres,all,none
outres,nsol,all,
outres,rsol,all
outres,eangl,all
outres,etmp,all
outres,veng,all
outres,strs,all,
outres,epel,all,
outres,eppl,all,
outres,cont,all,
outres,v,all,
outres,a,all,
outres,misc,all,_elmisc
solve
/com,****************************************************
/com,*************** FINISHED SOLVE FOR LS 26 *************
/com,****************************************************
/com,******************* SOLVE FOR LS 27 OF 45 ****************
/nopr
/gopr
autots,on                   ! User turned on automatic time stepping
deltim,0.5,0.5,0.5,OFF
time,27.
timint,on                  ! Turn on time integration effects
outres,erase
outres,all,none
outres,nsol,all,
outres,rsol,all
outres,eangl,all
outres,etmp,all
outres,veng,all
outres,strs,all,
outres,epel,all,
outres,eppl,all,
outres,cont,all,
outres,v,all,
outres,a,all,
outres,misc,all,_elmisc
solve
/com,****************************************************
/com,*************** FINISHED SOLVE FOR LS 27 *************
/com,****************************************************
/com,******************* SOLVE FOR LS 28 OF 45 ****************
/nopr
/gopr
autots,on                   ! User turned on automatic time stepping
deltim,0.5,0.5,0.5,OFF
time,28.
timint,on                  ! Turn on time integration effects
outres,erase
outres,all,none
outres,nsol,all,
outres,rsol,all
outres,eangl,all
outres,etmp,all
outres,veng,all
outres,strs,all,
outres,epel,all,
outres,eppl,all,
outres,cont,all,
outres,v,all,
outres,a,all,
outres,misc,all,_elmisc
solve
/com,****************************************************
/com,*************** FINISHED SOLVE FOR LS 28 *************
/com,****************************************************
/com,******************* SOLVE FOR LS 29 OF 45 ****************
/nopr
/gopr
autots,on                   ! User turned on automatic time stepping
deltim,0.5,0.5,0.5,OFF
time,29.
timint,on                  ! Turn on time integration effects
outres,erase
outres,all,none
outres,nsol,all,
outres,rsol,all
outres,eangl,all
outres,etmp,all
outres,veng,all
outres,strs,all,
outres,epel,all,
outres,eppl,all,
outres,cont,all,
outres,v,all,
outres,a,all,
outres,misc,all,_elmisc
solve
/com,****************************************************
/com,*************** FINISHED SOLVE FOR LS 29 *************
/com,****************************************************
/com,******************* SOLVE FOR LS 30 OF 45 ****************
/nopr
/gopr
autots,on                   ! User turned on automatic time stepping
deltim,0.5,0.5,0.5,OFF
time,30.
timint,on                  ! Turn on time integration effects
outres,erase
outres,all,none
outres,nsol,all,
outres,rsol,all
outres,eangl,all
outres,etmp,all
outres,veng,all
outres,strs,all,
outres,epel,all,
outres,eppl,all,
outres,cont,all,
outres,v,all,
outres,a,all,
outres,misc,all,_elmisc
solve
/com,****************************************************
/com,*************** FINISHED SOLVE FOR LS 30 *************
/com,****************************************************
/com,******************* SOLVE FOR LS 31 OF 45 ****************
/nopr
/gopr
autots,on                   ! User turned on automatic time stepping
deltim,0.5,0.5,0.5,OFF
time,31.
timint,on                  ! Turn on time integration effects
outres,erase
outres,all,none
outres,nsol,all,
outres,rsol,all
outres,eangl,all
outres,etmp,all
outres,veng,all
outres,strs,all,
outres,epel,all,
outres,eppl,all,
outres,cont,all,
outres,v,all,
outres,a,all,
outres,misc,all,_elmisc
solve
/com,****************************************************
/com,*************** FINISHED SOLVE FOR LS 31 *************
/com,****************************************************
/com,******************* SOLVE FOR LS 32 OF 45 ****************
/nopr
/gopr
autots,on                   ! User turned on automatic time stepping
deltim,0.5,0.5,0.5,OFF
time,32.
timint,on                  ! Turn on time integration effects
outres,erase
outres,all,none
outres,nsol,all,
outres,rsol,all
outres,eangl,all
outres,etmp,all
outres,veng,all
outres,strs,all,
outres,epel,all,
outres,eppl,all,
outres,cont,all,
outres,v,all,
outres,a,all,
outres,misc,all,_elmisc
solve
/com,****************************************************
/com,*************** FINISHED SOLVE FOR LS 32 *************
/com,****************************************************
/com,******************* SOLVE FOR LS 33 OF 45 ****************
/nopr
/gopr
autots,on                   ! User turned on automatic time stepping
deltim,0.5,0.5,0.5,OFF
time,33.
timint,on                  ! Turn on time integration effects
outres,erase
outres,all,none
outres,nsol,all,
outres,rsol,all
outres,eangl,all
outres,etmp,all
outres,veng,all
outres,strs,all,
outres,epel,all,
outres,eppl,all,
outres,cont,all,
outres,v,all,
outres,a,all,
outres,misc,all,_elmisc
solve
/com,****************************************************
/com,*************** FINISHED SOLVE FOR LS 33 *************
/com,****************************************************
/com,******************* SOLVE FOR LS 34 OF 45 ****************
/nopr
/gopr
autots,on                   ! User turned on automatic time stepping
deltim,0.5,0.5,0.5,OFF
time,34.
timint,on                  ! Turn on time integration effects
outres,erase
outres,all,none
outres,nsol,all,
outres,rsol,all
outres,eangl,all
outres,etmp,all
outres,veng,all
outres,strs,all,
outres,epel,all,
outres,eppl,all,
outres,cont,all,
outres,v,all,
outres,a,all,
outres,misc,all,_elmisc
solve
/com,****************************************************
/com,*************** FINISHED SOLVE FOR LS 34 *************
/com,****************************************************
/com,******************* SOLVE FOR LS 35 OF 45 ****************
/nopr
/gopr
autots,on                   ! User turned on automatic time stepping
deltim,0.5,0.5,0.5,OFF
time,35.
timint,on                  ! Turn on time integration effects
outres,erase
outres,all,none
outres,nsol,all,
outres,rsol,all
outres,eangl,all
outres,etmp,all
outres,veng,all
outres,strs,all,
outres,epel,all,
outres,eppl,all,
outres,cont,all,
outres,v,all,
outres,a,all,
outres,misc,all,_elmisc
solve
/com,****************************************************
/com,*************** FINISHED SOLVE FOR LS 35 *************
/com,****************************************************
/com,******************* SOLVE FOR LS 36 OF 45 ****************
/nopr
/gopr
autots,on                   ! User turned on automatic time stepping
deltim,0.5,0.5,0.5,OFF
time,36.
timint,on                  ! Turn on time integration effects
outres,erase
outres,all,none
outres,nsol,all,
outres,rsol,all
outres,eangl,all
outres,etmp,all
outres,veng,all
outres,strs,all,
outres,epel,all,
outres,eppl,all,
outres,cont,all,
outres,v,all,
outres,a,all,
outres,misc,all,_elmisc
solve
/com,****************************************************
/com,*************** FINISHED SOLVE FOR LS 36 *************
/com,****************************************************
/com,******************* SOLVE FOR LS 37 OF 45 ****************
/nopr
/gopr
autots,on                   ! User turned on automatic time stepping
deltim,0.5,0.5,0.5,OFF
time,37.
timint,on                  ! Turn on time integration effects
outres,erase
outres,all,none
outres,nsol,all,
outres,rsol,all
outres,eangl,all
outres,etmp,all
outres,veng,all
outres,strs,all,
outres,epel,all,
outres,eppl,all,
outres,cont,all,
outres,v,all,
outres,a,all,
outres,misc,all,_elmisc
solve
/com,****************************************************
/com,*************** FINISHED SOLVE FOR LS 37 *************
/com,****************************************************
/com,******************* SOLVE FOR LS 38 OF 45 ****************
/nopr
/gopr
autots,on                   ! User turned on automatic time stepping
deltim,0.5,0.5,0.5,OFF
time,38.
timint,on                  ! Turn on time integration effects
outres,erase
outres,all,none
outres,nsol,all,
outres,rsol,all
outres,eangl,all
outres,etmp,all
outres,veng,all
outres,strs,all,
outres,epel,all,
outres,eppl,all,
outres,cont,all,
outres,v,all,
outres,a,all,
outres,misc,all,_elmisc
solve
/com,****************************************************
/com,*************** FINISHED SOLVE FOR LS 38 *************
/com,****************************************************
/com,******************* SOLVE FOR LS 39 OF 45 ****************
/nopr
/gopr
autots,on                   ! User turned on automatic time stepping
deltim,0.5,0.5,0.5,OFF
time,39.
timint,on                  ! Turn on time integration effects
outres,erase
outres,all,none
outres,nsol,all,
outres,rsol,all
outres,eangl,all
outres,etmp,all
outres,veng,all
outres,strs,all,
outres,epel,all,
outres,eppl,all,
outres,cont,all,
outres,v,all,
outres,a,all,
outres,misc,all,_elmisc
solve
/com,****************************************************
/com,*************** FINISHED SOLVE FOR LS 39 *************
/com,****************************************************
/com,******************* SOLVE FOR LS 40 OF 45 ****************
/nopr
/gopr
autots,on                   ! User turned on automatic time stepping
deltim,0.5,0.5,0.5,OFF
time,40.
timint,on                  ! Turn on time integration effects
outres,erase
outres,all,none
outres,nsol,all,
outres,rsol,all
outres,eangl,all
outres,etmp,all
outres,veng,all
outres,strs,all,
outres,epel,all,
outres,eppl,all,
outres,cont,all,
outres,v,all,
outres,a,all,
outres,misc,all,_elmisc
solve
/com,****************************************************
/com,*************** FINISHED SOLVE FOR LS 40 *************
/com,****************************************************
/com,******************* SOLVE FOR LS 41 OF 45 ****************
/nopr
/gopr
autots,on                   ! User turned on automatic time stepping
deltim,0.5,0.5,0.5,OFF
time,41.
timint,on                  ! Turn on time integration effects
outres,erase
outres,all,none
outres,nsol,all,
outres,rsol,all
outres,eangl,all
outres,etmp,all
outres,veng,all
outres,strs,all,
outres,epel,all,
outres,eppl,all,
outres,cont,all,
outres,v,all,
outres,a,all,
outres,misc,all,_elmisc
solve
/com,****************************************************
/com,*************** FINISHED SOLVE FOR LS 41 *************
/com,****************************************************
/com,******************* SOLVE FOR LS 42 OF 45 ****************
/nopr
/gopr
autots,on                   ! User turned on automatic time stepping
deltim,0.5,0.5,0.5,OFF
time,42.
timint,on                  ! Turn on time integration effects
outres,erase
outres,all,none
outres,nsol,all,
outres,rsol,all
outres,eangl,all
outres,etmp,all
outres,veng,all
outres,strs,all,
outres,epel,all,
outres,eppl,all,
outres,cont,all,
outres,v,all,
outres,a,all,
outres,misc,all,_elmisc
solve
/com,****************************************************
/com,*************** FINISHED SOLVE FOR LS 42 *************
/com,****************************************************
/com,******************* SOLVE FOR LS 43 OF 45 ****************
/nopr
/gopr
autots,on                   ! User turned on automatic time stepping
deltim,0.5,0.5,0.5,OFF
time,43.
timint,on                  ! Turn on time integration effects
outres,erase
outres,all,none
outres,nsol,all,
outres,rsol,all
outres,eangl,all
outres,etmp,all
outres,veng,all
outres,strs,all,
outres,epel,all,
outres,eppl,all,
outres,cont,all,
outres,v,all,
outres,a,all,
outres,misc,all,_elmisc
solve
/com,****************************************************
/com,*************** FINISHED SOLVE FOR LS 43 *************
/com,****************************************************
/com,******************* SOLVE FOR LS 44 OF 45 ****************
/nopr
/gopr
autots,on                   ! User turned on automatic time stepping
deltim,0.5,0.5,0.5,OFF
time,44.
timint,on                  ! Turn on time integration effects
outres,erase
outres,all,none
outres,nsol,all,
outres,rsol,all
outres,eangl,all
outres,etmp,all
outres,veng,all
outres,strs,all,
outres,epel,all,
outres,eppl,all,
outres,cont,all,
outres,v,all,
outres,a,all,
outres,misc,all,_elmisc
solve
/com,****************************************************
/com,*************** FINISHED SOLVE FOR LS 44 *************
/com,****************************************************
/com,******************* SOLVE FOR LS 45 OF 45 ****************
/nopr
/gopr
autots,on                   ! User turned on automatic time stepping
deltim,0.5,0.5,0.5,OFF
time,45.
timint,on                  ! Turn on time integration effects
outres,erase
outres,all,none
outres,nsol,all,
outres,rsol,all
outres,eangl,all
outres,etmp,all
outres,veng,all
outres,strs,all,
outres,epel,all,
outres,eppl,all,
outres,cont,all,
outres,v,all,
outres,a,all,
outres,misc,all,_elmisc
solve
/com,****************************************************
/com,*************** FINISHED SOLVE FOR LS 45 *************
fini
*get,_wallasol,active,,time,wall
/nopr
*get,_numnode,node,0,count
*get,_numelem,elem,0,count
*get, _MAXELEMNUM, elem, 0, NUM, MAX
*get, _MAXNODENUM, node, 0, NUM, MAX,,,INTERNAL
*get, _MAXELEMTYPE, etyp, 0, NUM, MAX
*get, _MAXREALCONST, rcon, 0, NUM, MAX
*get,_NSOLTHREADS,active,0,ntfs
*get,_NSOLPROCESSES,active,0,npfs
/gopr
/post1
xmlo,ENCODING,ISO-8859-1
xmlo,parm
/xml,parm,xml
fini
/gopr
*get,_walldone,active,,time,wall
_preptime=(_wallbsol-_wallstrt)*3600
_solvtime=(_wallasol-_wallbsol)*3600
_posttime=(_walldone-_wallasol)*3600
_totaltim=(_walldone-_wallstrt)*3600
*get,_dlbratio,active,0,solu,dlbr
*get,_combtime,active,0,solu,comb
*get,_ssmode,active,0,solu,ssmm
*get,_ndofs,active,0,solu,ndof
*get,_sol_end_time,active,0,set,time
*if,_sol_end_time,eq,45.000000,then
/fclean				!clean distributed files
*endif
/com,--- Total number of nodes = %_numnode%
/com,--- Total number of elements = %_numelem%
/com,--- Element load balance ratio = %_dlbratio%
/com,--- Time to combine distributed files = %_combtime%
/com,--- Sparse memory mode = %_ssmode%
/com,--- Number of DOF = %_ndofs%
/wb,file,end               ! done with WB generated input
