/batch
/config,noeldb,1     ! force off writing results to database
*get,_wallstrt,active,,time,wall
! ANSYS input file written by Workbench version 2026 R1
! File used for geometry attach: F:\CoME\Forth Semester\Practice FEM\Git_upload\03_Axisymmetric_FEM_Analysis\1_water_foundain\ansys\project_files\water_fountain_files\dp0\Geom\DM\Geom.agdb
/title,water_fountain--Static Structural (B5)
! ****** Begin Custom Load Command Snippet ******
/COM, ACT Extensions:
/COM,     LSDYNA, 2026.1
/COM,     5f463412-bd3e-484b-87e7-cbc0a665e474, wbex
/COM,     ANSYSMotion, 2026.1
/COM,     20180725-3f81-49eb-9f31-41364844c769, wbex
! ****** End   Custom Load Command Snippet ******
*DIM,_wb_ProjectScratch_dir,string,248
_wb_ProjectScratch_dir(1) = 'F:\CoME\Forth Semester\Practice FEM\Git_upload\03_Axisymmetric_FEM_Analysis\1_water_foundain\ansys\project_files\_ProjectScratch\ScrD361\'
*DIM,_wb_SolverFiles_dir,string,248
_wb_SolverFiles_dir(1) = 'F:\CoME\Forth Semester\Practice FEM\Git_upload\03_Axisymmetric_FEM_Analysis\1_water_foundain\ansys\project_files\water_fountain_files\dp0\SYS\MECH\'
*DIM,_wb_userfiles_dir,string,248
_wb_userfiles_dir(1) = 'F:\CoME\Forth Semester\Practice FEM\Git_upload\03_Axisymmetric_FEM_Analysis\1_water_foundain\ansys\project_files\water_fountain_files\user_files\'
/com,--- Data in consistent NMM units. See Solving Units in the help system for more information.
/units,MPA
/nopr
/wb,file,start              !  signify a WB generated input file
/prep7
! Turn off shape checking because checks already performed inside WB mesher.
! See help system for more information.
SHPP,OFF,,NOWARN
/nolist
etcon,set             ! allow ANSYS to choose best KEYOP's for 180x elements, resets any applicable keyopt to MAPDL defaults
/com,*********** Send User Defined Coordinate System(s) ***********
local,12,0,680.,760.,0.,-90.,0.,-180.
local,13,0,940.,180.,0.,-90.,0.,-180.
csys,0
/com,*********** Nodes for the whole assembly ***********
nblock,3,,11357
(1i9,3e20.9e3)
        1     6.278880793E+02     5.895164727E+02     0.000000000E+00
        2     6.289820117E+02     5.869687400E+02     0.000000000E+00
        3     6.060527919E+02     6.312836037E+02     0.000000000E+00
        4     5.797725953E+02     6.515858750E+02     0.000000000E+00
        5     5.771400810E+02     6.563008535E+02     0.000000000E+00
        6     5.718734783E+02     6.212257658E+02     0.000000000E+00
        7     5.923652232E+02     6.491428031E+02     0.000000000E+00
        8     5.993482744E+02     6.439993228E+02     0.000000000E+00
        9     6.021696870E+02     6.445503142E+02     0.000000000E+00
       10     6.096810716E+02     6.389463974E+02     0.000000000E+00
       11     6.048296687E+02     6.452668787E+02     0.000000000E+00
       12     6.071184740E+02     6.464542837E+02     0.000000000E+00
       13     6.148241820E+02     6.416554001E+02     0.000000000E+00
       14     6.120906475E+02     6.406537206E+02     0.000000000E+00
       15     6.095501737E+02     6.477354685E+02     0.000000000E+00
       16     6.127827749E+02     6.491986780E+02     0.000000000E+00
       17     6.213897167E+02     6.444944937E+02     0.000000000E+00
       18     6.190496053E+02     6.428694340E+02     0.000000000E+00
       19     6.194802013E+02     6.319498660E+02     0.000000000E+00
       20     6.125491893E+02     6.562902981E+02     0.000000000E+00
! ... 10306 like lines cut
/wb,elem,start            !  set before creation of elements
/com,*********** Elements for Body 1 'Surface Body' ***********
et,1,183
keyo,1,3,1
MAT,1 $ TYPE,1 $ REAL,1 $ SECNUM,1 $ ESYS,0    ! ELEMNODES = 8
eblock,21,COMPACT,,3372
(21i9)
        1     2914      240      239      239     3478     4030      239     4244
        2     2914     3020      240      240     9321     3535      240     3478
        3      722     2943      631      631     3479     4750      631     4460
        4      722     2905     2943     2943     4456     9285     2943     3479
        5      631      399      677      677     3480     4751      677     4752
        6      631     2943      399      399     4750     4211      399     3480
        7        5     3056     2842     2842     3481     9310     2842     4258
        8        5      243     3056     3056     4036     4257     3056     3481
        9      323       80      148      148     3482     3574      148     3576
       10      323      145       80       80     3577     3578       80     3482
       11     2832       22       91       91     3483     3908       91     3836
       12     2832     3017       22       22     9395     3907       22     3483
       13     2944      500      475      475     3484     4284      475     4311
       14     2944     3472      500      500    10303     4283      500     3484
       15      444     3472     2999     2999     3485    10302     2999     4324
       16      444      500     3472     3472     4285     4283     3472     3485
       17      496     2852     3454     3454     3486    10304     3454     4309
       18      496      410     2852     2852     4305     4212     2852     3486
       19      111     2737     3018     3018     3487     9327     3018     4243
       20      111      236     2737     2737     4017     4240     2737     3487
! ... 3353 like lines cut
secnum,1    ! reset the section ID to default
! Material Id = {298F918F-66D5-4F3B-B0D9-B99C63C7F539}
/wb,elem,end               !  done creating elements
toffst,273.15,      ! Temperature offset from absolute zero
/com,*********** Set Reference Temperature ***********
tref,22.
/wb,mat,start              !  starting to send materials
/com,*********** Send Materials ***********
Temperature = 'TEMP' ! Temperature
MP,DENS,1,2.3e-09,	! tonne mm^-3
MP,ALPX,1,1.4e-05,	! C^-1
MP,C,1,780000000,	! mm^2 s^-2 C^-1
MP,KXX,1,0.72,	! tonne mm s^-3 C^-1
MP,EX,1,30000,	! tonne s^-2 mm^-1
MP,NUXY,1,0.18,
MP,UVID,1,283e1bb1-7053-4e50-bfd9-d684843d56ac
MP,UMID,1,e7a3d0f0-fca0-4a5b-ae20-90728ac72604

/wb,mat,end                !  done sending materials
!************************* Model Summary ********************
! Surface Body,	Concrete,	matid,	1
!************************* End Model Summary ********************
! get the diagonal of the bounding box. Needed later for other things
*get,_xmin,node,,mnloc,x
*get,_ymin,node,,mnloc,y
*get,_zmin,node,,mnloc,z
*get,_xmax,node,,mxloc,x
*get,_ymax,node,,mxloc,y
*get,_zmax,node,,mxloc,z
_ASMDIAG=(_xmax-_xmin)*(_xmax-_xmin)+(_ymax-_ymin)*(_ymax-_ymin)+(_zmax-_zmin)*(_zmax-_zmin)
_ASMDIAG=SQRT(_ASMDIAG)
/wb,contact,start          !  starting to send contact
/wb,contact,end            !  done creating contacts
/golist
/wb,load,start             !  starting to send loads
/com,*********** Fixed Supports ***********
CMBLOCK,_FIXEDSU,NODE,       40
(8i10)
      2756      2768      2771      2773      2808      2815      2822      2824
      2871      2872      2879      2882      2883      2930      2933      2941
      2942      3001      3002      3038      3039      3044      3045      3048
      9209      9210      9213      9214      9219      9220      9275     -9277
      9358     -9365      9464      9465      9476      9478      9480      9481
cmsel,s,_FIXEDSU
d,all,all
nsel,all
/com,********* Frictionless Supports X *********
CMBLOCK,_FRICSUX,NODE,       44
(8i10)
      2715      2718     -2720      2723      2746      2750      2752      2753
      2795      2797      2798      2801      2802      2806      2809      2810
      2817      2839      2856      2863      2865      2869      2886      2887
      2890      2893      2894      2922      2925      2927      9160      9161
      9163      9164      9167      9168      9173     -9176      9183     -9188
      9205      9206      9262     -9274
cmsel,s,_FRICSUX
d,all,ux,0
nsel,all
/com,*********** Create Hydrostatic Pressure ***********
et,2,153
keyop,2,3,10        ! get plane stress option and thickness from underlying element
MAT,2 $ TYPE,2 $ REAL,2 $ SECNUM,2 $ ESYS,0    ! ELEMNODES = 3
eblock,21,COMPACT,,100
(21i9)
     3373     3071     2953     9379
     3374     2911     3071     9378
     3375     3070     2912     9370
     3376     2953     3070     9369
     3377     2836     2956     9278
     3378     2956     3052     9366
     3379     2915     2732     9146
     3380     2833     3053     9393
     3381     3053     2910     9392
     3382     3066     2911     9387
     3383     2952     3066     9386
     3384     3067     2952     9385
     3385     2910     3067     9384
     3386     3052     2833     9367
     3387     2732     2836     9149
     3388     3017     2832     9395
     3389     3018     2737     9327
     3390     2914     3018     9326
     3391     3015     2957     9398
     3392     2957     2739     9254
! ... 81 like lines cut
secnum,1    ! reset the section ID to default
esel,s,type,,2
esel,all
!
! ANSYS Function Representation
!
*DIM,_loadvari37,TABLE,6,9,3,,,,12
!
! Begin of equation: x (MPa)
_loadvari37(0,0,1)= -50, -999
_loadvari37(2,0,1)= 0.0
_loadvari37(3,0,1)= 0.0
_loadvari37(4,0,1)= 0.0
_loadvari37(5,0,1)= 0.0
_loadvari37(6,0,1)= 0.0
_loadvari37(0,1,1)= 1.0, -1, 0, 0.0010000000000000000208, 0, 0, 2
_loadvari37(0,2,1)= 0.0, -2, 0, 1, 2, 3, -1
_loadvari37(0,3,1)=   1, -1, 0, 0.000001, 0, 0, -2
_loadvari37(0,4,1)= 0.0, -3, 0, 1, -2, 3, -1
_loadvari37(0,5,1)= 0.0, 99, 0, 1, -3, 0, 0
_loadvari37(0,6,1)= 0.0, 
_loadvari37(0,7,1)= 0.0, 
_loadvari37(0,8,1)= 0.0, 
_loadvari37(0,9,1)= 0.0, 
! End of equation: x (MPa)
!
! Begin of equation: 9800.*(-x) (MPa)
_loadvari37(0,0,2)= 0, -999
_loadvari37(2,0,2)= 0.0
_loadvari37(3,0,2)= 0.0
_loadvari37(4,0,2)= 0.0
_loadvari37(5,0,2)= 0.0
_loadvari37(6,0,2)= 0.0
_loadvari37(0,1,2)= 1.0, -1, 0, 0.0010000000000000000208, 0, 0, 2
_loadvari37(0,2,2)= 0.0, -2, 0, 1, 2, 3, -1
_loadvari37(0,3,2)=   1, -1, 0, -1, 0, 0, -2
_loadvari37(0,4,2)= 0.0, -3, 0, 1, -1, 3, -2
_loadvari37(0,5,2)= 0.0, -1, 0, 9800, 0, 0, -3
_loadvari37(0,6,2)= 0.0, -2, 0, 1, -1, 3, -3
_loadvari37(0,7,2)= 0.0, -1, 0, 0.000001, 0, 0, -2
_loadvari37(0,8,2)= 0.0, -3, 0, 1, -2, 3, -1
_loadvari37(0,9,2)= 0.0, 99, 0, 1, -3, 0, 0
! End of equation: 9800.*(-x) (MPa)
!
! Begin of equation: 0.0 (MPa)
_loadvari37(0,0,3)= 50, -999
_loadvari37(2,0,3)= 0.0
_loadvari37(3,0,3)= 0.0
_loadvari37(4,0,3)= 0.0
_loadvari37(5,0,3)= 0.0
_loadvari37(6,0,3)= 0.0
_loadvari37(0,1,3)= 1.0, -1, 0, 0, 0, 0, 0
_loadvari37(0,2,3)= 0.0, -2, 0, 0.000001, 0, 0, -1
_loadvari37(0,3,3)=   1, -3, 0, 1, -1, 3, -2
_loadvari37(0,4,3)= 0.0, 99, 0, 1, -3, 0, 0
_loadvari37(0,5,3)= 0.0, 
_loadvari37(0,6,3)= 0.0, 
_loadvari37(0,7,3)= 0.0, 
_loadvari37(0,8,3)= 0.0, 
_loadvari37(0,9,3)= 0.0, 
! End of equation: 0.0 (MPa)

!
! ANSYS Function Representation
!
*DIM,_loadvari37r,TABLE,6,12,3,,,,12
!
! Begin of equation: x (MPa)
_loadvari37r(0,0,1)= -50, -999
_loadvari37r(2,0,1)= 0.0
_loadvari37r(3,0,1)= 0.0
_loadvari37r(4,0,1)= 0.0
_loadvari37r(5,0,1)= 0.0
_loadvari37r(6,0,1)= 0.0
_loadvari37r(0,1,1)= 1.0, -1, 0, 0.0010000000000000000208, 0, 0, 2
_loadvari37r(0,2,1)= 0.0, -2, 0, 1, 2, 3, -1
_loadvari37r(0,3,1)=   1, -1, 0, 0.000001, 0, 0, -2
_loadvari37r(0,4,1)= 0.0, -3, 0, 1, -2, 3, -1
_loadvari37r(0,5,1)= 0.0, 99, 0, 1, -3, 0, 0
_loadvari37r(0,6,1)= 0.0, 
_loadvari37r(0,7,1)= 0.0, 
_loadvari37r(0,8,1)= 0.0, 
_loadvari37r(0,9,1)= 0.0, 
_loadvari37r(0,10,1)= 0.0, 
_loadvari37r(0,11,1)= 0.0, 
_loadvari37r(0,12,1)= 0.0, 
! End of equation: x (MPa)
!
! Begin of equation: 9800.*(-x)*time/1 (MPa)
_loadvari37r(0,0,2)= 0, -999
_loadvari37r(2,0,2)= 0.0
_loadvari37r(3,0,2)= 0.0
_loadvari37r(4,0,2)= 0.0
_loadvari37r(5,0,2)= 0.0
_loadvari37r(6,0,2)= 0.0
_loadvari37r(0,1,2)= 1.0, -1, 0, 0.0010000000000000000208, 0, 0, 2
_loadvari37r(0,2,2)= 0.0, -2, 0, 1, 2, 3, -1
_loadvari37r(0,3,2)=   1, -1, 0, -1, 0, 0, -2
_loadvari37r(0,4,2)= 0.0, -3, 0, 1, -1, 3, -2
_loadvari37r(0,5,2)= 0.0, -1, 0, 9800, 0, 0, -3
_loadvari37r(0,6,2)= 0.0, -2, 0, 1, -1, 3, -3
_loadvari37r(0,7,2)= 0.0, -1, 0, 1, -2, 3, 1
_loadvari37r(0,8,2)= 0.0, -2, 0, 1, 0, 0, -1
_loadvari37r(0,9,2)= 0.0, -3, 0, 1, -1, 4, -2
_loadvari37r(0,10,2)= 0.0, -1, 0, 0.000001, 0, 0, -3
_loadvari37r(0,11,2)= 0.0, -2, 0, 1, -3, 3, -1
_loadvari37r(0,12,2)= 0.0, 99, 0, 1, -2, 0, 0
! End of equation: 9800.*(-x)*time/1 (MPa)
!
! Begin of equation: 0.0 (MPa)
_loadvari37r(0,0,3)= 50, -999
_loadvari37r(2,0,3)= 0.0
_loadvari37r(3,0,3)= 0.0
_loadvari37r(4,0,3)= 0.0
_loadvari37r(5,0,3)= 0.0
_loadvari37r(6,0,3)= 0.0
_loadvari37r(0,1,3)= 1.0, -1, 0, 0, 0, 0, 0
_loadvari37r(0,2,3)= 0.0, -2, 0, 0.000001, 0, 0, -1
_loadvari37r(0,3,3)=   1, -3, 0, 1, -1, 3, -2
_loadvari37r(0,4,3)= 0.0, 99, 0, 1, -3, 0, 0
_loadvari37r(0,5,3)= 0.0, 
_loadvari37r(0,6,3)= 0.0, 
_loadvari37r(0,7,3)= 0.0, 
_loadvari37r(0,8,3)= 0.0, 
_loadvari37r(0,9,3)= 0.0, 
_loadvari37r(0,10,3)= 0.0, 
_loadvari37r(0,11,3)= 0.0, 
_loadvari37r(0,12,3)= 0.0, 
! End of equation: 0.0 (MPa)

/com,*********** Create Hydrostatic Pressure ***********
et,3,153
keyop,3,3,10        ! get plane stress option and thickness from underlying element
MAT,3 $ TYPE,3 $ REAL,3 $ SECNUM,3 $ ESYS,0    ! ELEMNODES = 3
eblock,21,COMPACT,,38
(21i9)
     3473     3003     2938     9356
     3474     2763     3003     9357
     3475     3004     2763     9355
     3476     2878     3004     9354
     3477     3043     2878     9353
     3478     2825     3043     9352
     3479     3041     2825     9351
     3480     2934     3041     9350
     3481     2873     2764     9212
     3482     2938     2761     9208
     3483     2761     2873     9207
     3484     2764     2939     9211
     3485     2939     2767     9218
     3486     2767     2940     9217
     3487     2940     2766     9224
     3488     2766     2935     9223
     3489     2935     2758     9230
     3490     2758     2936     9229
     3491     3046     2934     9470
     3492     2827     3046     9469
! ... 19 like lines cut
secnum,1    ! reset the section ID to default
esel,s,type,,3
esel,all
!
! ANSYS Function Representation
!
*DIM,_loadvari42,TABLE,6,9,3,,,,13
!
! Begin of equation: x (MPa)
_loadvari42(0,0,1)= -50, -999
_loadvari42(2,0,1)= 0.0
_loadvari42(3,0,1)= 0.0
_loadvari42(4,0,1)= 0.0
_loadvari42(5,0,1)= 0.0
_loadvari42(6,0,1)= 0.0
_loadvari42(0,1,1)= 1.0, -1, 0, 0.0010000000000000000208, 0, 0, 2
_loadvari42(0,2,1)= 0.0, -2, 0, 1, 2, 3, -1
_loadvari42(0,3,1)=   1, -1, 0, 0.000001, 0, 0, -2
_loadvari42(0,4,1)= 0.0, -3, 0, 1, -2, 3, -1
_loadvari42(0,5,1)= 0.0, 99, 0, 1, -3, 0, 0
_loadvari42(0,6,1)= 0.0, 
_loadvari42(0,7,1)= 0.0, 
_loadvari42(0,8,1)= 0.0, 
_loadvari42(0,9,1)= 0.0, 
! End of equation: x (MPa)
!
! Begin of equation: 9800.*(-x) (MPa)
_loadvari42(0,0,2)= 0, -999
_loadvari42(2,0,2)= 0.0
_loadvari42(3,0,2)= 0.0
_loadvari42(4,0,2)= 0.0
_loadvari42(5,0,2)= 0.0
_loadvari42(6,0,2)= 0.0
_loadvari42(0,1,2)= 1.0, -1, 0, 0.0010000000000000000208, 0, 0, 2
_loadvari42(0,2,2)= 0.0, -2, 0, 1, 2, 3, -1
_loadvari42(0,3,2)=   1, -1, 0, -1, 0, 0, -2
_loadvari42(0,4,2)= 0.0, -3, 0, 1, -1, 3, -2
_loadvari42(0,5,2)= 0.0, -1, 0, 9800, 0, 0, -3
_loadvari42(0,6,2)= 0.0, -2, 0, 1, -1, 3, -3
_loadvari42(0,7,2)= 0.0, -1, 0, 0.000001, 0, 0, -2
_loadvari42(0,8,2)= 0.0, -3, 0, 1, -2, 3, -1
_loadvari42(0,9,2)= 0.0, 99, 0, 1, -3, 0, 0
! End of equation: 9800.*(-x) (MPa)
!
! Begin of equation: 0.0 (MPa)
_loadvari42(0,0,3)= 50, -999
_loadvari42(2,0,3)= 0.0
_loadvari42(3,0,3)= 0.0
_loadvari42(4,0,3)= 0.0
_loadvari42(5,0,3)= 0.0
_loadvari42(6,0,3)= 0.0
_loadvari42(0,1,3)= 1.0, -1, 0, 0, 0, 0, 0
_loadvari42(0,2,3)= 0.0, -2, 0, 0.000001, 0, 0, -1
_loadvari42(0,3,3)=   1, -3, 0, 1, -1, 3, -2
_loadvari42(0,4,3)= 0.0, 99, 0, 1, -3, 0, 0
_loadvari42(0,5,3)= 0.0, 
_loadvari42(0,6,3)= 0.0, 
_loadvari42(0,7,3)= 0.0, 
_loadvari42(0,8,3)= 0.0, 
_loadvari42(0,9,3)= 0.0, 
! End of equation: 0.0 (MPa)

!
! ANSYS Function Representation
!
*DIM,_loadvari42r,TABLE,6,12,3,,,,13
!
! Begin of equation: x (MPa)
_loadvari42r(0,0,1)= -50, -999
_loadvari42r(2,0,1)= 0.0
_loadvari42r(3,0,1)= 0.0
_loadvari42r(4,0,1)= 0.0
_loadvari42r(5,0,1)= 0.0
_loadvari42r(6,0,1)= 0.0
_loadvari42r(0,1,1)= 1.0, -1, 0, 0.0010000000000000000208, 0, 0, 2
_loadvari42r(0,2,1)= 0.0, -2, 0, 1, 2, 3, -1
_loadvari42r(0,3,1)=   1, -1, 0, 0.000001, 0, 0, -2
_loadvari42r(0,4,1)= 0.0, -3, 0, 1, -2, 3, -1
_loadvari42r(0,5,1)= 0.0, 99, 0, 1, -3, 0, 0
_loadvari42r(0,6,1)= 0.0, 
_loadvari42r(0,7,1)= 0.0, 
_loadvari42r(0,8,1)= 0.0, 
_loadvari42r(0,9,1)= 0.0, 
_loadvari42r(0,10,1)= 0.0, 
_loadvari42r(0,11,1)= 0.0, 
_loadvari42r(0,12,1)= 0.0, 
! End of equation: x (MPa)
!
! Begin of equation: 9800.*(-x)*time/1 (MPa)
_loadvari42r(0,0,2)= 0, -999
_loadvari42r(2,0,2)= 0.0
_loadvari42r(3,0,2)= 0.0
_loadvari42r(4,0,2)= 0.0
_loadvari42r(5,0,2)= 0.0
_loadvari42r(6,0,2)= 0.0
_loadvari42r(0,1,2)= 1.0, -1, 0, 0.0010000000000000000208, 0, 0, 2
_loadvari42r(0,2,2)= 0.0, -2, 0, 1, 2, 3, -1
_loadvari42r(0,3,2)=   1, -1, 0, -1, 0, 0, -2
_loadvari42r(0,4,2)= 0.0, -3, 0, 1, -1, 3, -2
_loadvari42r(0,5,2)= 0.0, -1, 0, 9800, 0, 0, -3
_loadvari42r(0,6,2)= 0.0, -2, 0, 1, -1, 3, -3
_loadvari42r(0,7,2)= 0.0, -1, 0, 1, -2, 3, 1
_loadvari42r(0,8,2)= 0.0, -2, 0, 1, 0, 0, -1
_loadvari42r(0,9,2)= 0.0, -3, 0, 1, -1, 4, -2
_loadvari42r(0,10,2)= 0.0, -1, 0, 0.000001, 0, 0, -3
_loadvari42r(0,11,2)= 0.0, -2, 0, 1, -3, 3, -1
_loadvari42r(0,12,2)= 0.0, 99, 0, 1, -2, 0, 0
! End of equation: 9800.*(-x)*time/1 (MPa)
!
! Begin of equation: 0.0 (MPa)
_loadvari42r(0,0,3)= 50, -999
_loadvari42r(2,0,3)= 0.0
_loadvari42r(3,0,3)= 0.0
_loadvari42r(4,0,3)= 0.0
_loadvari42r(5,0,3)= 0.0
_loadvari42r(6,0,3)= 0.0
_loadvari42r(0,1,3)= 1.0, -1, 0, 0, 0, 0, 0
_loadvari42r(0,2,3)= 0.0, -2, 0, 0.000001, 0, 0, -1
_loadvari42r(0,3,3)=   1, -3, 0, 1, -1, 3, -2
_loadvari42r(0,4,3)= 0.0, 99, 0, 1, -3, 0, 0
_loadvari42r(0,5,3)= 0.0, 
_loadvari42r(0,6,3)= 0.0, 
_loadvari42r(0,7,3)= 0.0, 
_loadvari42r(0,8,3)= 0.0, 
_loadvari42r(0,9,3)= 0.0, 
_loadvari42r(0,10,3)= 0.0, 
_loadvari42r(0,11,3)= 0.0, 
_loadvari42r(0,12,3)= 0.0, 
! End of equation: 0.0 (MPa)

/gst,on,on
fini
*get,_numnode,node,0,count
*get,_numelem,elem,0,count
*get, _MAXELEMNUM, elem, 0, NUM, MAX
*get, _MAXNODENUM, node, 0, NUM, MAX
*get, _MAXELEMTYPE, etyp, 0, NUM, MAX
*get, _MAXREALCONST, rcon, 0, NUM, MAX
/go
/wb,load,end               !  done creating loads
/com,--- Number of total nodes = %_numnode%
/com,--- Number of contact elements = 138
/com,--- Number of spring elements = 0
/com,--- Number of bearing elements = 0
/com,--- Number of solid elements = 3372
/com,--- Number of condensed parts = 0
/com,--- Number of total elements = %_numelem%
*get,_wallbsol,active,,time,wall
/com,****************************************************************************
/com,*************************    SOLUTION       ********************************
/com,****************************************************************************
/solu
antype,0                   ! static analysis
_thickRatio=  0     ! Ratio of thick parts in the model
eqsl,sparse,,,,,1
cntr,print,1               ! print out contact info and also make no initial contact an error
cncheck,dmp		!	Enable program controlled contact splitting for distributed memory parallel run
dmpoption,emat,no             ! Don't combine emat file for DANSYS
dmpoption,esav,no             ! Don't combine esav file for DANSYS
nldiag,cont,iter           ! print out contact info each equilibrium iteration
rescontrol,,none                 ! Do not keep any restart files
/com,****************************************************
/com,******************* SOLVE FOR LS 1 OF 1 ****************
esel,s,type,,2
nsle
sf,all,pres,%_loadvari37r%
esel,s,type,,3
nsle
sf,all,pres,%_loadvari42r%
nsel,all
esel,all
/nopr
/gopr
nsub,1,1,1
time,1.
outres,erase
outres,all,none
outres,nsol,all,
outres,rsol,all
outres,eangl,all
outres,etmp,all
outres,veng,all
outres,strs,all,
outres,epel,all,
outres,eppl,all,
outres,cont,all,
! *********** WB SOLVE COMMAND ***********
! check interactive state
*get,ANSINTER_,active,,int
*if,ANSINTER_,ne,0,then
/eof
*endif
solve
/com *************** Write FE CONNECTORS ********* 
CEWRITE,file,ce,,INTE
/com,****************************************************
/com,*************** FINISHED SOLVE FOR LS 1 *************
fini
*get,_wallasol,active,,time,wall
/nopr
*get,_numnode,node,0,count
*get,_numelem,elem,0,count
*get, _MAXELEMNUM, elem, 0, NUM, MAX
*get, _MAXNODENUM, node, 0, NUM, MAX,,,INTERNAL
*get, _MAXELEMTYPE, etyp, 0, NUM, MAX
*get, _MAXREALCONST, rcon, 0, NUM, MAX
*get,_NSOLTHREADS,active,0,ntfs
*get,_NSOLPROCESSES,active,0,npfs
/gopr
/post1
xmlo,ENCODING,ISO-8859-1
xmlo,parm
/xml,parm,xml
fini
/gopr
*get,_walldone,active,,time,wall
_preptime=(_wallbsol-_wallstrt)*3600
_solvtime=(_wallasol-_wallbsol)*3600
_posttime=(_walldone-_wallasol)*3600
_totaltim=(_walldone-_wallstrt)*3600
*get,_dlbratio,active,0,solu,dlbr
*get,_combtime,active,0,solu,comb
*get,_ssmode,active,0,solu,ssmm
*get,_ndofs,active,0,solu,ndof
*get,_sol_end_time,active,0,set,time
*if,_sol_end_time,eq,1.000000,then
/fclean				!clean distributed files
*endif
/com,--- Total number of nodes = %_numnode%
/com,--- Total number of elements = %_numelem%
/com,--- Element load balance ratio = %_dlbratio%
/com,--- Time to combine distributed files = %_combtime%
/com,--- Sparse memory mode = %_ssmode%
/com,--- Number of DOF = %_ndofs%
/wb,file,end               ! done with WB generated input
